New "Line.05410_339787oh" bus1=n292532.1.2.3 bus2=n292537.1.2.3 geometry=OH3P_FR8_N56_OH_477_AAC_OH_336_AAC_ABCN Seasons=1 Ratings=[0,] normamps=650 emergamps=975 phases=3 length=162.947 units=ft
New "Line.05410_339786oh" bus1=n292547.1.2.3 bus2=n292537.1.2.3 geometry=OH3P_FR8_N56_OH_477_AAC_OH_336_AAC_ABCN Seasons=1 Ratings=[0,] normamps=650 emergamps=975 phases=3 length=285.3155 units=ft
New "Line.g2101ha2400_n292547_sec_1" bus1=g2101ha2400_n292547_sec.1.2.3 bus2=g2101ha2400_n292547_sec_1.1.2.3 linecode=2/0_2/0-3ph Seasons=1 Ratings=[400,] normamps=230 emergamps=287.5 phases=3 length=150 units=ft
New "Line.05410_339783oh" bus1=n292550.1.2.3 bus2=n292547.1.2.3 geometry=OH3P_FR8_N56_OH_477_AAC_OH_336_AAC_ABCN Seasons=1 Ratings=[0,] normamps=650 emergamps=975 phases=3 length=150.9439 units=ft
New "Line.05410_339826oh" bus1=n292549.1.2.3 bus2=n292550.1.2.3 geometry=OH3P_FR8_N56_OH_477_AAC_OH_336_AAC_ABCN Seasons=1 Ratings=[0,] normamps=650 emergamps=975 phases=3 length=52.5213 units=ft
New "Line.05410_339828oh" bus1=n292549.1.2.3 bus2=n292540.1.2.3 geometry=OH3P_FR8_N56_OH_477_AAC_OH_336_AAC_ABCN Seasons=1 Ratings=[0,] normamps=650 emergamps=975 phases=3 length=343.0618 units=ft
New "Line.g2101ia3300_n292540_sec_1" bus1=g2101ia3300_n292540_sec.1.2.3 bus2=g2101ia3300_n292540_sec_1.1.2.3 linecode=2/0_2/0-3ph Seasons=1 Ratings=[400,] normamps=230 emergamps=287.5 phases=3 length=150 units=ft
New "Line.05410_339785oh" bus1=n292540.1.2.3 bus2=n292533.1.2.3 geometry=OH3P_FR8_N56_OH_477_AAC_OH_336_AAC_ABCN Seasons=1 Ratings=[0,] normamps=650 emergamps=975 phases=3 length=180.0066 units=ft
New "Line.05410_339882oh" bus1=n292533.1.2.3 bus2=n300610.1.2.3 geometry=OH3P_FR8_N56_OH_477_AAC_OH_336_AAC_ABCN Seasons=1 Ratings=[0,] normamps=650 emergamps=975 phases=3 length=205.4041 units=ft
New "Line.05410_339880oh" bus1=n300610.1.2.3 bus2=n300605.1.2.3 geometry=OH3P_FR8_N56_OH_477_AAC_OH_336_AAC_ABCN Seasons=1 Ratings=[0,] normamps=650 emergamps=975 phases=3 length=107.9093 units=ft
New "Line.05410_339883oh" bus1=n300605.1.2.3 bus2=n300603.1.2.3 geometry=OH3P_FR8_N56_OH_1/0_ACSR_6/1_OH_477_AAC_ABCN Seasons=1 Ratings=[0,] normamps=242 emergamps=363 phases=3 length=64.8649 units=ft
New "Line.05410_339884oh" bus1=n300603.1.2.3 bus2=n300602.1.2.3 geometry=OH3P_FR8_N56_OH_1/0_AAAC_5005_OH_1/0_AAAC_5005_ABCN Seasons=1 Ratings=[0,] normamps=261 emergamps=391.5 phases=3 length=39.9438 units=ft
New "Line.g2100jp2000_n300602_sec_2" bus1=g2100jp2000_n300602_sec.1.2.3 bus2=g2100jp2000_n300602_sec_2.1.2.3 linecode=2/0_2/0-3ph Seasons=1 Ratings=[400,] normamps=230 emergamps=287.5 phases=3 length=150 units=ft
New "Line.g2100jp2000_n300602_sec_1" bus1=g2100jp2000_n300602_sec.1.2.3 bus2=g2100jp2000_n300602_sec_1.1.2.3 linecode=2/0_2/0-3ph Seasons=1 Ratings=[400,] normamps=230 emergamps=287.5 phases=3 length=150 units=ft
New "Line.05410_339885oh" bus1=n300602.1 bus2=n300578.1 geometry=OH3P_FR8_N56_OH_1/0_AAAC_5005_OH_1/0_AAAC_5005_AN Seasons=1 Ratings=[0,] normamps=261 emergamps=391.5 phases=1 length=287.6094 units=ft
New "Line.05410_339878oh" bus1=n300578.1 bus2=n292485.1 geometry=OH3P_FR8_N56_OH_1/0_AAAC_5005_OH_1/0_AAAC_5005_AN Seasons=1 Ratings=[0,] normamps=261 emergamps=391.5 phases=1 length=366.9674 units=ft
New "Line.05410_339879oh" bus1=n300605.1.2.3 bus2=n300601.1.2.3 geometry=OH3P_FR8_N56_OH_477_AAC_OH_336_AAC_ABCN Seasons=1 Ratings=[0,] normamps=650 emergamps=975 phases=3 length=115.3432 units=ft
New "Line.g2100jp3100_n300601_sec_4" bus1=g2100jp3100_n300601_sec.1 bus2=g2100jp3100_n300601_sec_4.1 linecode=2/0_2/0 Seasons=1 Ratings=[400,] normamps=230 emergamps=287.5 phases=1 length=150 units=ft
New "Line.g2100jp3100_n300601_sec_3" bus1=g2100jp3100_n300601_sec.1 bus2=g2100jp3100_n300601_sec_3.1 linecode=2/0_2/0 Seasons=1 Ratings=[400,] normamps=230 emergamps=287.5 phases=1 length=150 units=ft
New "Line.g2100jp3100_n300601_sec_2" bus1=g2100jp3100_n300601_sec.1 bus2=g2100jp3100_n300601_sec_2.1 linecode=2/0_2/0 Seasons=1 Ratings=[400,] normamps=230 emergamps=287.5 phases=1 length=150 units=ft
New "Line.g2100jp3100_n300601_sec_1" bus1=g2100jp3100_n300601_sec.1 bus2=g2100jp3100_n300601_sec_1.1 linecode=2/0_2/0 Seasons=1 Ratings=[400,] normamps=230 emergamps=287.5 phases=1 length=150 units=ft
New "Line.g2100jo5900_n300601_sec_1" bus1=g2100jo5900_n300601_sec.3 bus2=g2100jo5900_n300601_sec_1.3 linecode=2/0_2/0 Seasons=1 Ratings=[400,] normamps=230 emergamps=287.5 phases=1 length=150 units=ft
New "Line.05410_65108108oh" bus1=n300601.1.2.3 bus2=n300588.1.2.3 geometry=OH3P_FR8_N56_OH_477_AAC_OH_336_AAC_ABCN Seasons=1 Ratings=[0,] normamps=650 emergamps=975 phases=3 length=269.2297 units=ft
New "Line.05410_65108109oh" bus1=n300588.1.2.3 bus2=n1437248.1.2.3 geometry=OH3P_FR8_N56_OH_477_AAC_OH_336_AAC_ABCN Seasons=1 Ratings=[0,] normamps=650 emergamps=975 phases=3 length=106.2712 units=ft
New "Line.05410_339535oh" bus1=n1437248.1.2.3 bus2=n300582.1.2.3 geometry=OH3P_FR8_N56_OH_477_AAC_OH_336_AAC_ABCN Seasons=1 Ratings=[0,] normamps=650 emergamps=975 phases=3 length=193.9545 units=ft
New "Line.g2100ko6600_n300582_sec_3" bus1=g2100ko6600_n300582_sec.1.2.3 bus2=g2100ko6600_n300582_sec_3.1.2.3 linecode=2/0_2/0-3ph Seasons=1 Ratings=[400,] normamps=230 emergamps=287.5 phases=3 length=150 units=ft
New "Line.g2100ko6600_n300582_sec_2" bus1=g2100ko6600_n300582_sec.1.2.3 bus2=g2100ko6600_n300582_sec_2.1.2.3 linecode=2/0_2/0-3ph Seasons=1 Ratings=[400,] normamps=230 emergamps=287.5 phases=3 length=200 units=ft
New "Line.g2100ko6600_n300582_sec_1" bus1=g2100ko6600_n300582_sec.1.2.3 bus2=g2100ko6600_n300582_sec_1.1.2.3 linecode=2/0_2/0-3ph Seasons=1 Ratings=[400,] normamps=230 emergamps=287.5 phases=3 length=200 units=ft
New "Line.g2100ko2700_n300582_sec_7" bus1=g2100ko2700_n300582_sec.1.2.3 bus2=g2100ko2700_n300582_sec_7.1.2.3 linecode=2/0_2/0-3ph Seasons=1 Ratings=[400,] normamps=230 emergamps=287.5 phases=3 length=150 units=ft
New "Line.g2100ko2700_n300582_sec_6" bus1=g2100ko2700_n300582_sec.1.2.3 bus2=g2100ko2700_n300582_sec_6.1.2.3 linecode=2/0_2/0-3ph Seasons=1 Ratings=[400,] normamps=230 emergamps=287.5 phases=3 length=150 units=ft
New "Line.g2100ko2700_n300582_sec_5" bus1=g2100ko2700_n300582_sec.1.2.3 bus2=g2100ko2700_n300582_sec_5.1.2.3 linecode=2/0_2/0-3ph Seasons=1 Ratings=[400,] normamps=230 emergamps=287.5 phases=3 length=150 units=ft
New "Line.g2100ko2700_n300582_sec_4" bus1=g2100ko2700_n300582_sec.1.2.3 bus2=g2100ko2700_n300582_sec_4.1.2.3 linecode=2/0_2/0-3ph Seasons=1 Ratings=[400,] normamps=230 emergamps=287.5 phases=3 length=150 units=ft
New "Line.g2100ko2700_n300582_sec_3" bus1=g2100ko2700_n300582_sec.1.2.3 bus2=g2100ko2700_n300582_sec_3.1.2.3 linecode=2/0_2/0-3ph Seasons=1 Ratings=[400,] normamps=230 emergamps=287.5 phases=3 length=150 units=ft
New "Line.g2100ko2700_n300582_sec_2" bus1=g2100ko2700_n300582_sec.1.2.3 bus2=g2100ko2700_n300582_sec_2.1.2.3 linecode=2/0_2/0-3ph Seasons=1 Ratings=[400,] normamps=230 emergamps=287.5 phases=3 length=150 units=ft
New "Line.g2100ko2700_n300582_sec_1" bus1=g2100ko2700_n300582_sec.1.2.3 bus2=g2100ko2700_n300582_sec_1.1.2.3 linecode=2/0_2/0-3ph Seasons=1 Ratings=[400,] normamps=230 emergamps=287.5 phases=3 length=150 units=ft
New "Line.05410_339536oh" bus1=n300582.1.2.3 bus2=n300575.1.2.3 geometry=OH3P_FR8_N56_OH_477_AAC_OH_336_AAC_ABCN Seasons=1 Ratings=[0,] normamps=650 emergamps=975 phases=3 length=191.5843 units=ft
New "Line.05410_339703oh" bus1=n300575.1.2.3 bus2=n300589.1.2.3 geometry=OH3P_FR8_N56_OH_477_AAC_OH_477_AAC_ABCN Seasons=1 Ratings=[0,] normamps=650 emergamps=975 phases=3 length=196.9532 units=ft
New "Line.05410_6460961oh" bus1=n300589.1 bus2=n300590.1 geometry=OH1P_VERT_N56_OH_1/0_AAAC_5005_OH_1/0_AAAC_5005_AN Seasons=1 Ratings=[0,] normamps=261 emergamps=391.5 phases=1 length=22.4029 units=ft
New "Line.05410_5672529ug" bus1=n300590.1 bus2=n300598.1 linecode=UG_1/0_Al_XLPE_35kV_1_Phase Seasons=1 Ratings=[400,] normamps=200 emergamps=600 phases=1 length=205 units=ft
New "Line.05410_12985793ug" bus1=n300598.1 bus2=n300626.1 linecode=UG_1/0_Al_XLPE_35kV_1_Phase Seasons=1 Ratings=[400,] normamps=200 emergamps=600 phases=1 length=494 units=ft
New "Line.g2100ko9900_n300626_sec_2" bus1=g2100ko9900_n300626_sec.1 bus2=g2100ko9900_n300626_sec_2.1 linecode=2/0_2/0 Seasons=1 Ratings=[400,] normamps=230 emergamps=287.5 phases=1 length=150 units=ft
New "Line.g2100ko9900_n300626_sec_1" bus1=g2100ko9900_n300626_sec.1 bus2=g2100ko9900_n300626_sec_1.1 linecode=2/0_2/0 Seasons=1 Ratings=[400,] normamps=230 emergamps=287.5 phases=1 length=150 units=ft
New "Line.05410_12985797ug" bus1=n300626.1 bus2=n300634.1 linecode=UG_1/0_Al_XLPE_35kV_1_Phase Seasons=1 Ratings=[400,] normamps=200 emergamps=600 phases=1 length=325 units=ft
New "Line.g2101ja8400_n300634_sec_3" bus1=g2101ja8400_n300634_sec.1 bus2=g2101ja8400_n300634_sec_3.1 linecode=2/0_2/0 Seasons=1 Ratings=[400,] normamps=230 emergamps=287.5 phases=1 length=150 units=ft
New "Line.g2101ja8400_n300634_sec_2" bus1=g2101ja8400_n300634_sec.1 bus2=g2101ja8400_n300634_sec_2.1 linecode=2/0_2/0 Seasons=1 Ratings=[400,] normamps=230 emergamps=287.5 phases=1 length=150 units=ft
New "Line.g2101ja8400_n300634_sec_1" bus1=g2101ja8400_n300634_sec.1 bus2=g2101ja8400_n300634_sec_1.1 linecode=2/0_2/0 Seasons=1 Ratings=[400,] normamps=230 emergamps=287.5 phases=1 length=150 units=ft
New "Line.05410_12985796ug" bus1=n300628.1 bus2=n300634.1 linecode=UG_1/0_Al_XLPE_35kV_1_Phase Seasons=1 Ratings=[400,] normamps=200 emergamps=600 phases=1 length=325 units=ft
New "Line.05410_12969696ug" bus1=n300628.1 bus2=n300631.1 linecode=UG_1/0_Al_XLPE_35kV_1_Phase Seasons=1 Ratings=[400,] normamps=200 emergamps=600 phases=1 length=23 units=ft
New "Line.g2101ka2300_n300631_sec_22" bus1=g2101ka2300_n300631_sec.1 bus2=g2101ka2300_n300631_sec_22.1 linecode=2/0_2/0 Seasons=1 Ratings=[400,] normamps=230 emergamps=287.5 phases=1 length=150 units=ft
New "Line.g2101ka2300_n300631_sec_21" bus1=g2101ka2300_n300631_sec.1 bus2=g2101ka2300_n300631_sec_21.1 linecode=Sweetbriar Seasons=1 Ratings=[400,] normamps=299 emergamps=373.75 phases=1 length=200 units=ft
New "Line.g2101ka2300_n300631_sec_20" bus1=g2101ka2300_n300631_sec.1 bus2=g2101ka2300_n300631_sec_20.1 linecode=Sweetbriar Seasons=1 Ratings=[400,] normamps=299 emergamps=373.75 phases=1 length=200 units=ft
New "Line.g2101ka2300_n300631_sec_19" bus1=g2101ka2300_n300631_sec.1 bus2=g2101ka2300_n300631_sec_19.1 linecode=Sweetbriar Seasons=1 Ratings=[400,] normamps=299 emergamps=373.75 phases=1 length=200 units=ft
New "Line.g2101ka2300_n300631_sec_18" bus1=g2101ka2300_n300631_sec.1 bus2=g2101ka2300_n300631_sec_18.1 linecode=Sweetbriar Seasons=1 Ratings=[400,] normamps=299 emergamps=373.75 phases=1 length=200 units=ft
New "Line.g2101ka2300_n300631_sec_17" bus1=g2101ka2300_n300631_sec.1 bus2=g2101ka2300_n300631_sec_17.1 linecode=Sweetbriar Seasons=1 Ratings=[400,] normamps=299 emergamps=373.75 phases=1 length=200 units=ft
New "Line.g2101ka2300_n300631_sec_16" bus1=g2101ka2300_n300631_sec.1 bus2=g2101ka2300_n300631_sec_16.1 linecode=Sweetbriar Seasons=1 Ratings=[400,] normamps=299 emergamps=373.75 phases=1 length=200 units=ft
New "Line.g2101ka2300_n300631_sec_15" bus1=g2101ka2300_n300631_sec.1 bus2=g2101ka2300_n300631_sec_15.1 linecode=Sweetbriar Seasons=1 Ratings=[400,] normamps=299 emergamps=373.75 phases=1 length=200 units=ft
New "Line.g2101ka2300_n300631_sec_14" bus1=g2101ka2300_n300631_sec.1 bus2=g2101ka2300_n300631_sec_14.1 linecode=Sweetbriar Seasons=1 Ratings=[400,] normamps=299 emergamps=373.75 phases=1 length=200 units=ft
New "Line.g2101ka2300_n300631_sec_13" bus1=g2101ka2300_n300631_sec.1 bus2=g2101ka2300_n300631_sec_13.1 linecode=Sweetbriar Seasons=1 Ratings=[400,] normamps=299 emergamps=373.75 phases=1 length=200 units=ft
New "Line.g2101ka2300_n300631_sec_12" bus1=g2101ka2300_n300631_sec.1 bus2=g2101ka2300_n300631_sec_12.1 linecode=Sweetbriar Seasons=1 Ratings=[400,] normamps=299 emergamps=373.75 phases=1 length=200 units=ft
New "Line.g2101ka2300_n300631_sec_11" bus1=g2101ka2300_n300631_sec.1 bus2=g2101ka2300_n300631_sec_11.1 linecode=Sweetbriar Seasons=1 Ratings=[400,] normamps=299 emergamps=373.75 phases=1 length=200 units=ft
New "Line.g2101ka2300_n300631_sec_10" bus1=g2101ka2300_n300631_sec.1 bus2=g2101ka2300_n300631_sec_10.1 linecode=Sweetbriar Seasons=1 Ratings=[400,] normamps=299 emergamps=373.75 phases=1 length=200 units=ft
New "Line.g2101ka2300_n300631_sec_9" bus1=g2101ka2300_n300631_sec.1 bus2=g2101ka2300_n300631_sec_9.1 linecode=Sweetbriar Seasons=1 Ratings=[400,] normamps=299 emergamps=373.75 phases=1 length=200 units=ft
New "Line.g2101ka2300_n300631_sec_8" bus1=g2101ka2300_n300631_sec.1 bus2=g2101ka2300_n300631_sec_8.1 linecode=Sweetbriar Seasons=1 Ratings=[400,] normamps=299 emergamps=373.75 phases=1 length=200 units=ft
New "Line.g2101ka2300_n300631_sec_7" bus1=g2101ka2300_n300631_sec.1 bus2=g2101ka2300_n300631_sec_7.1 linecode=Sweetbriar Seasons=1 Ratings=[400,] normamps=299 emergamps=373.75 phases=1 length=200 units=ft
New "Line.g2101ka2300_n300631_sec_6" bus1=g2101ka2300_n300631_sec.1 bus2=g2101ka2300_n300631_sec_6.1 linecode=Sweetbriar Seasons=1 Ratings=[400,] normamps=299 emergamps=373.75 phases=1 length=200 units=ft
New "Line.g2101ka2300_n300631_sec_5" bus1=g2101ka2300_n300631_sec.1 bus2=g2101ka2300_n300631_sec_5.1 linecode=Sweetbriar Seasons=1 Ratings=[400,] normamps=299 emergamps=373.75 phases=1 length=200 units=ft
New "Line.g2101ka2300_n300631_sec_4" bus1=g2101ka2300_n300631_sec.1 bus2=g2101ka2300_n300631_sec_4.1 linecode=Sweetbriar Seasons=1 Ratings=[400,] normamps=299 emergamps=373.75 phases=1 length=200 units=ft
New "Line.g2101ka2300_n300631_sec_3" bus1=g2101ka2300_n300631_sec.1 bus2=g2101ka2300_n300631_sec_3.1 linecode=2/0_2/0 Seasons=1 Ratings=[400,] normamps=230 emergamps=287.5 phases=1 length=150 units=ft
New "Line.g2101ka2300_n300631_sec_2" bus1=g2101ka2300_n300631_sec.1 bus2=g2101ka2300_n300631_sec_2.1 linecode=Sweetbriar Seasons=1 Ratings=[400,] normamps=299 emergamps=373.75 phases=1 length=200 units=ft
New "Line.g2101ka2300_n300631_sec_1" bus1=g2101ka2300_n300631_sec.1 bus2=g2101ka2300_n300631_sec_1.1 linecode=Sweetbriar Seasons=1 Ratings=[400,] normamps=299 emergamps=373.75 phases=1 length=200 units=ft
New "Line.05410_5736604ug" bus1=n300631.1 bus2=n300623.1 linecode=UG_1/0_Al_XLPE_35kV_1_Phase Seasons=1 Ratings=[400,] normamps=200 emergamps=600 phases=1 length=245 units=ft
New "Line.g2101ka6200_n300623_sec_21" bus1=g2101ka6200_n300623_sec.1 bus2=g2101ka6200_n300623_sec_21.1 linecode=Sweetbriar Seasons=1 Ratings=[400,] normamps=299 emergamps=373.75 phases=1 length=200 units=ft
New "Line.g2101ka6200_n300623_sec_20" bus1=g2101ka6200_n300623_sec.1 bus2=g2101ka6200_n300623_sec_20.1 linecode=Sweetbriar Seasons=1 Ratings=[400,] normamps=299 emergamps=373.75 phases=1 length=200 units=ft
New "Line.g2101ka6200_n300623_sec_19" bus1=g2101ka6200_n300623_sec.1 bus2=g2101ka6200_n300623_sec_19.1 linecode=Sweetbriar Seasons=1 Ratings=[400,] normamps=299 emergamps=373.75 phases=1 length=200 units=ft
New "Line.g2101ka6200_n300623_sec_18" bus1=g2101ka6200_n300623_sec.1 bus2=g2101ka6200_n300623_sec_18.1 linecode=Sweetbriar Seasons=1 Ratings=[400,] normamps=299 emergamps=373.75 phases=1 length=200 units=ft
New "Line.g2101ka6200_n300623_sec_17" bus1=g2101ka6200_n300623_sec.1 bus2=g2101ka6200_n300623_sec_17.1 linecode=Sweetbriar Seasons=1 Ratings=[400,] normamps=299 emergamps=373.75 phases=1 length=200 units=ft
New "Line.g2101ka6200_n300623_sec_16" bus1=g2101ka6200_n300623_sec.1 bus2=g2101ka6200_n300623_sec_16.1 linecode=Sweetbriar Seasons=1 Ratings=[400,] normamps=299 emergamps=373.75 phases=1 length=200 units=ft
New "Line.g2101ka6200_n300623_sec_15" bus1=g2101ka6200_n300623_sec.1 bus2=g2101ka6200_n300623_sec_15.1 linecode=Sweetbriar Seasons=1 Ratings=[400,] normamps=299 emergamps=373.75 phases=1 length=200 units=ft
New "Line.g2101ka6200_n300623_sec_14" bus1=g2101ka6200_n300623_sec.1 bus2=g2101ka6200_n300623_sec_14.1 linecode=Sweetbriar Seasons=1 Ratings=[400,] normamps=299 emergamps=373.75 phases=1 length=200 units=ft
New "Line.g2101ka6200_n300623_sec_13" bus1=g2101ka6200_n300623_sec.1 bus2=g2101ka6200_n300623_sec_13.1 linecode=Sweetbriar Seasons=1 Ratings=[400,] normamps=299 emergamps=373.75 phases=1 length=200 units=ft
New "Line.g2101ka6200_n300623_sec_12" bus1=g2101ka6200_n300623_sec.1 bus2=g2101ka6200_n300623_sec_12.1 linecode=Sweetbriar Seasons=1 Ratings=[400,] normamps=299 emergamps=373.75 phases=1 length=200 units=ft
New "Line.g2101ka6200_n300623_sec_11" bus1=g2101ka6200_n300623_sec.1 bus2=g2101ka6200_n300623_sec_11.1 linecode=Sweetbriar Seasons=1 Ratings=[400,] normamps=299 emergamps=373.75 phases=1 length=200 units=ft
New "Line.g2101ka6200_n300623_sec_10" bus1=g2101ka6200_n300623_sec.1 bus2=g2101ka6200_n300623_sec_10.1 linecode=Sweetbriar Seasons=1 Ratings=[400,] normamps=299 emergamps=373.75 phases=1 length=200 units=ft
New "Line.g2101ka6200_n300623_sec_9" bus1=g2101ka6200_n300623_sec.1 bus2=g2101ka6200_n300623_sec_9.1 linecode=Sweetbriar Seasons=1 Ratings=[400,] normamps=299 emergamps=373.75 phases=1 length=200 units=ft
New "Line.g2101ka6200_n300623_sec_8" bus1=g2101ka6200_n300623_sec.1 bus2=g2101ka6200_n300623_sec_8.1 linecode=Sweetbriar Seasons=1 Ratings=[400,] normamps=299 emergamps=373.75 phases=1 length=200 units=ft
New "Line.g2101ka6200_n300623_sec_7" bus1=g2101ka6200_n300623_sec.1 bus2=g2101ka6200_n300623_sec_7.1 linecode=Sweetbriar Seasons=1 Ratings=[400,] normamps=299 emergamps=373.75 phases=1 length=200 units=ft
New "Line.g2101ka6200_n300623_sec_6" bus1=g2101ka6200_n300623_sec.1 bus2=g2101ka6200_n300623_sec_6.1 linecode=Sweetbriar Seasons=1 Ratings=[400,] normamps=299 emergamps=373.75 phases=1 length=200 units=ft
New "Line.g2101ka6200_n300623_sec_5" bus1=g2101ka6200_n300623_sec.1 bus2=g2101ka6200_n300623_sec_5.1 linecode=Sweetbriar Seasons=1 Ratings=[400,] normamps=299 emergamps=373.75 phases=1 length=200 units=ft
New "Line.g2101ka6200_n300623_sec_4" bus1=g2101ka6200_n300623_sec.1 bus2=g2101ka6200_n300623_sec_4.1 linecode=Sweetbriar Seasons=1 Ratings=[400,] normamps=299 emergamps=373.75 phases=1 length=200 units=ft
New "Line.g2101ka6200_n300623_sec_3" bus1=g2101ka6200_n300623_sec.1 bus2=g2101ka6200_n300623_sec_3.1 linecode=Sweetbriar Seasons=1 Ratings=[400,] normamps=299 emergamps=373.75 phases=1 length=200 units=ft
New "Line.g2101ka6200_n300623_sec_2" bus1=g2101ka6200_n300623_sec.1 bus2=g2101ka6200_n300623_sec_2.1 linecode=2/0_2/0 Seasons=1 Ratings=[400,] normamps=230 emergamps=287.5 phases=1 length=150 units=ft
New "Line.g2101ka6200_n300623_sec_1" bus1=g2101ka6200_n300623_sec.1 bus2=g2101ka6200_n300623_sec_1.1 linecode=Sweetbriar Seasons=1 Ratings=[400,] normamps=299 emergamps=373.75 phases=1 length=200 units=ft
New "Line.05410_5736659ug" bus1=n300623.1 bus2=n300629.1 linecode=UG_1/0_Al_XLPE_35kV_1_Phase Seasons=1 Ratings=[400,] normamps=200 emergamps=600 phases=1 length=105 units=ft
New "Line.05410_5736660ug" bus1=n300629.1 bus2=n300643.1 linecode=UG_1/0_Al_XLPE_35kV_1_Phase Seasons=1 Ratings=[400,] normamps=200 emergamps=600 phases=1 length=155 units=ft
New "Line.g2101ka7500_n300643_sec_1" bus1=g2101ka7500_n300643_sec.1 bus2=g2101ka7500_n300643_sec_1.1 linecode=2/0_2/0 Seasons=1 Ratings=[400,] normamps=230 emergamps=287.5 phases=1 length=150 units=ft
New "Line.05410_5736661ug" bus1=n300643.1 bus2=n300662.1 linecode=UG_1/0_Al_XLPE_35kV_1_Phase Seasons=1 Ratings=[400,] normamps=200 emergamps=600 phases=1 length=155 units=ft
New "Line.g2101ka6800_n300662_sec_2" bus1=g2101ka6800_n300662_sec.1 bus2=g2101ka6800_n300662_sec_2.1 linecode=2/0_2/0 Seasons=1 Ratings=[400,] normamps=230 emergamps=287.5 phases=1 length=150 units=ft
New "Line.g2101ka6800_n300662_sec_1" bus1=g2101ka6800_n300662_sec.1 bus2=g2101ka6800_n300662_sec_1.1 linecode=2/0_2/0 Seasons=1 Ratings=[400,] normamps=230 emergamps=287.5 phases=1 length=150 units=ft
New "Line.05410_5736662ug" bus1=n300662.1 bus2=n300672.1 linecode=UG_1/0_Al_XLPE_35kV_1_Phase Seasons=1 Ratings=[400,] normamps=200 emergamps=600 phases=1 length=450 units=ft
New "Line.g2101ka0900_n300672_sec_22" bus1=g2101ka0900_n300672_sec.1 bus2=g2101ka0900_n300672_sec_22.1 linecode=Sweetbriar Seasons=1 Ratings=[400,] normamps=299 emergamps=373.75 phases=1 length=200 units=ft
New "Line.g2101ka0900_n300672_sec_21" bus1=g2101ka0900_n300672_sec.1 bus2=g2101ka0900_n300672_sec_21.1 linecode=Sweetbriar Seasons=1 Ratings=[400,] normamps=299 emergamps=373.75 phases=1 length=200 units=ft
New "Line.g2101ka0900_n300672_sec_20" bus1=g2101ka0900_n300672_sec.1 bus2=g2101ka0900_n300672_sec_20.1 linecode=Sweetbriar Seasons=1 Ratings=[400,] normamps=299 emergamps=373.75 phases=1 length=200 units=ft
New "Line.g2101ka0900_n300672_sec_19" bus1=g2101ka0900_n300672_sec.1 bus2=g2101ka0900_n300672_sec_19.1 linecode=Sweetbriar Seasons=1 Ratings=[400,] normamps=299 emergamps=373.75 phases=1 length=200 units=ft
New "Line.g2101ka0900_n300672_sec_18" bus1=g2101ka0900_n300672_sec.1 bus2=g2101ka0900_n300672_sec_18.1 linecode=Sweetbriar Seasons=1 Ratings=[400,] normamps=299 emergamps=373.75 phases=1 length=200 units=ft
New "Line.g2101ka0900_n300672_sec_17" bus1=g2101ka0900_n300672_sec.1 bus2=g2101ka0900_n300672_sec_17.1 linecode=Sweetbriar Seasons=1 Ratings=[400,] normamps=299 emergamps=373.75 phases=1 length=200 units=ft
New "Line.g2101ka0900_n300672_sec_16" bus1=g2101ka0900_n300672_sec.1 bus2=g2101ka0900_n300672_sec_16.1 linecode=Sweetbriar Seasons=1 Ratings=[400,] normamps=299 emergamps=373.75 phases=1 length=200 units=ft
New "Line.g2101ka0900_n300672_sec_15" bus1=g2101ka0900_n300672_sec.1 bus2=g2101ka0900_n300672_sec_15.1 linecode=Sweetbriar Seasons=1 Ratings=[400,] normamps=299 emergamps=373.75 phases=1 length=200 units=ft
New "Line.g2101ka0900_n300672_sec_14" bus1=g2101ka0900_n300672_sec.1 bus2=g2101ka0900_n300672_sec_14.1 linecode=Sweetbriar Seasons=1 Ratings=[400,] normamps=299 emergamps=373.75 phases=1 length=200 units=ft
New "Line.g2101ka0900_n300672_sec_13" bus1=g2101ka0900_n300672_sec.1 bus2=g2101ka0900_n300672_sec_13.1 linecode=Sweetbriar Seasons=1 Ratings=[400,] normamps=299 emergamps=373.75 phases=1 length=200 units=ft
New "Line.g2101ka0900_n300672_sec_12" bus1=g2101ka0900_n300672_sec.1 bus2=g2101ka0900_n300672_sec_12.1 linecode=Sweetbriar Seasons=1 Ratings=[400,] normamps=299 emergamps=373.75 phases=1 length=200 units=ft
New "Line.g2101ka0900_n300672_sec_11" bus1=g2101ka0900_n300672_sec.1 bus2=g2101ka0900_n300672_sec_11.1 linecode=Sweetbriar Seasons=1 Ratings=[400,] normamps=299 emergamps=373.75 phases=1 length=200 units=ft
New "Line.g2101ka0900_n300672_sec_10" bus1=g2101ka0900_n300672_sec.1 bus2=g2101ka0900_n300672_sec_10.1 linecode=Sweetbriar Seasons=1 Ratings=[400,] normamps=299 emergamps=373.75 phases=1 length=200 units=ft
New "Line.g2101ka0900_n300672_sec_9" bus1=g2101ka0900_n300672_sec.1 bus2=g2101ka0900_n300672_sec_9.1 linecode=Sweetbriar Seasons=1 Ratings=[400,] normamps=299 emergamps=373.75 phases=1 length=200 units=ft
New "Line.g2101ka0900_n300672_sec_8" bus1=g2101ka0900_n300672_sec.1 bus2=g2101ka0900_n300672_sec_8.1 linecode=2/0_2/0 Seasons=1 Ratings=[400,] normamps=230 emergamps=287.5 phases=1 length=150 units=ft
New "Line.g2101ka0900_n300672_sec_7" bus1=g2101ka0900_n300672_sec.1 bus2=g2101ka0900_n300672_sec_7.1 linecode=Sweetbriar Seasons=1 Ratings=[400,] normamps=299 emergamps=373.75 phases=1 length=200 units=ft
New "Line.g2101ka0900_n300672_sec_6" bus1=g2101ka0900_n300672_sec.1 bus2=g2101ka0900_n300672_sec_6.1 linecode=Sweetbriar Seasons=1 Ratings=[400,] normamps=299 emergamps=373.75 phases=1 length=200 units=ft
New "Line.g2101ka0900_n300672_sec_5" bus1=g2101ka0900_n300672_sec.1 bus2=g2101ka0900_n300672_sec_5.1 linecode=Sweetbriar Seasons=1 Ratings=[400,] normamps=299 emergamps=373.75 phases=1 length=200 units=ft
New "Line.g2101ka0900_n300672_sec_4" bus1=g2101ka0900_n300672_sec.1 bus2=g2101ka0900_n300672_sec_4.1 linecode=Sweetbriar Seasons=1 Ratings=[400,] normamps=299 emergamps=373.75 phases=1 length=200 units=ft
New "Line.g2101ka0900_n300672_sec_3" bus1=g2101ka0900_n300672_sec.1 bus2=g2101ka0900_n300672_sec_3.1 linecode=Sweetbriar Seasons=1 Ratings=[400,] normamps=299 emergamps=373.75 phases=1 length=200 units=ft
New "Line.g2101ka0900_n300672_sec_2" bus1=g2101ka0900_n300672_sec.1 bus2=g2101ka0900_n300672_sec_2.1 linecode=Sweetbriar Seasons=1 Ratings=[400,] normamps=299 emergamps=373.75 phases=1 length=200 units=ft
New "Line.g2101ka0900_n300672_sec_1" bus1=g2101ka0900_n300672_sec.1 bus2=g2101ka0900_n300672_sec_1.1 linecode=2/0_2/0 Seasons=1 Ratings=[400,] normamps=230 emergamps=287.5 phases=1 length=150 units=ft
New "Line.05410_5752481ug" bus1=n300672.1 bus2=n300679.1 linecode=UG_1/0_Al_XLPE_35kV_1_Phase Seasons=1 Ratings=[400,] normamps=200 emergamps=600 phases=1 length=180 units=ft
New "Line.g2101ka3900_n300679_sec_21" bus1=g2101ka3900_n300679_sec.1 bus2=g2101ka3900_n300679_sec_21.1 linecode=Sweetbriar Seasons=1 Ratings=[400,] normamps=299 emergamps=373.75 phases=1 length=200 units=ft
New "Line.g2101ka3900_n300679_sec_20" bus1=g2101ka3900_n300679_sec.1 bus2=g2101ka3900_n300679_sec_20.1 linecode=Sweetbriar Seasons=1 Ratings=[400,] normamps=299 emergamps=373.75 phases=1 length=200 units=ft
New "Line.g2101ka3900_n300679_sec_19" bus1=g2101ka3900_n300679_sec.1 bus2=g2101ka3900_n300679_sec_19.1 linecode=Sweetbriar Seasons=1 Ratings=[400,] normamps=299 emergamps=373.75 phases=1 length=200 units=ft
New "Line.g2101ka3900_n300679_sec_18" bus1=g2101ka3900_n300679_sec.1 bus2=g2101ka3900_n300679_sec_18.1 linecode=Sweetbriar Seasons=1 Ratings=[400,] normamps=299 emergamps=373.75 phases=1 length=200 units=ft
New "Line.g2101ka3900_n300679_sec_17" bus1=g2101ka3900_n300679_sec.1 bus2=g2101ka3900_n300679_sec_17.1 linecode=Sweetbriar Seasons=1 Ratings=[400,] normamps=299 emergamps=373.75 phases=1 length=200 units=ft
New "Line.g2101ka3900_n300679_sec_16" bus1=g2101ka3900_n300679_sec.1 bus2=g2101ka3900_n300679_sec_16.1 linecode=Sweetbriar Seasons=1 Ratings=[400,] normamps=299 emergamps=373.75 phases=1 length=200 units=ft
New "Line.g2101ka3900_n300679_sec_15" bus1=g2101ka3900_n300679_sec.1 bus2=g2101ka3900_n300679_sec_15.1 linecode=Sweetbriar Seasons=1 Ratings=[400,] normamps=299 emergamps=373.75 phases=1 length=200 units=ft
New "Line.g2101ka3900_n300679_sec_14" bus1=g2101ka3900_n300679_sec.1 bus2=g2101ka3900_n300679_sec_14.1 linecode=Sweetbriar Seasons=1 Ratings=[400,] normamps=299 emergamps=373.75 phases=1 length=200 units=ft
New "Line.g2101ka3900_n300679_sec_13" bus1=g2101ka3900_n300679_sec.1 bus2=g2101ka3900_n300679_sec_13.1 linecode=Sweetbriar Seasons=1 Ratings=[400,] normamps=299 emergamps=373.75 phases=1 length=200 units=ft
New "Line.g2101ka3900_n300679_sec_12" bus1=g2101ka3900_n300679_sec.1 bus2=g2101ka3900_n300679_sec_12.1 linecode=Sweetbriar Seasons=1 Ratings=[400,] normamps=299 emergamps=373.75 phases=1 length=200 units=ft
New "Line.g2101ka3900_n300679_sec_11" bus1=g2101ka3900_n300679_sec.1 bus2=g2101ka3900_n300679_sec_11.1 linecode=Sweetbriar Seasons=1 Ratings=[400,] normamps=299 emergamps=373.75 phases=1 length=200 units=ft
New "Line.g2101ka3900_n300679_sec_10" bus1=g2101ka3900_n300679_sec.1 bus2=g2101ka3900_n300679_sec_10.1 linecode=Sweetbriar Seasons=1 Ratings=[400,] normamps=299 emergamps=373.75 phases=1 length=200 units=ft
New "Line.g2101ka3900_n300679_sec_9" bus1=g2101ka3900_n300679_sec.1 bus2=g2101ka3900_n300679_sec_9.1 linecode=Sweetbriar Seasons=1 Ratings=[400,] normamps=299 emergamps=373.75 phases=1 length=200 units=ft
New "Line.g2101ka3900_n300679_sec_8" bus1=g2101ka3900_n300679_sec.1 bus2=g2101ka3900_n300679_sec_8.1 linecode=Sweetbriar Seasons=1 Ratings=[400,] normamps=299 emergamps=373.75 phases=1 length=200 units=ft
New "Line.g2101ka3900_n300679_sec_7" bus1=g2101ka3900_n300679_sec.1 bus2=g2101ka3900_n300679_sec_7.1 linecode=Sweetbriar Seasons=1 Ratings=[400,] normamps=299 emergamps=373.75 phases=1 length=200 units=ft
New "Line.g2101ka3900_n300679_sec_6" bus1=g2101ka3900_n300679_sec.1 bus2=g2101ka3900_n300679_sec_6.1 linecode=Sweetbriar Seasons=1 Ratings=[400,] normamps=299 emergamps=373.75 phases=1 length=200 units=ft
New "Line.g2101ka3900_n300679_sec_5" bus1=g2101ka3900_n300679_sec.1 bus2=g2101ka3900_n300679_sec_5.1 linecode=Sweetbriar Seasons=1 Ratings=[400,] normamps=299 emergamps=373.75 phases=1 length=200 units=ft
New "Line.g2101ka3900_n300679_sec_4" bus1=g2101ka3900_n300679_sec.1 bus2=g2101ka3900_n300679_sec_4.1 linecode=Sweetbriar Seasons=1 Ratings=[400,] normamps=299 emergamps=373.75 phases=1 length=200 units=ft
New "Line.g2101ka3900_n300679_sec_3" bus1=g2101ka3900_n300679_sec.1 bus2=g2101ka3900_n300679_sec_3.1 linecode=Sweetbriar Seasons=1 Ratings=[400,] normamps=299 emergamps=373.75 phases=1 length=200 units=ft
New "Line.g2101ka3900_n300679_sec_2" bus1=g2101ka3900_n300679_sec.1 bus2=g2101ka3900_n300679_sec_2.1 linecode=2/0_2/0 Seasons=1 Ratings=[400,] normamps=230 emergamps=287.5 phases=1 length=150 units=ft
New "Line.g2101ka3900_n300679_sec_1" bus1=g2101ka3900_n300679_sec.1 bus2=g2101ka3900_n300679_sec_1.1 linecode=Sweetbriar Seasons=1 Ratings=[400,] normamps=299 emergamps=373.75 phases=1 length=200 units=ft
New "Line.05410_5784467ug" bus1=n300679.1 bus2=n300687.1 linecode=UG_1/0_Al_XLPE_35kV_1_Phase Seasons=1 Ratings=[400,] normamps=200 emergamps=600 phases=1 length=170 units=ft
New "Line.05410_5752483ug" bus1=n300687.1 bus2=n300696.1 linecode=UG_1/0_Al_XLPE_35kV_1_Phase Seasons=1 Ratings=[400,] normamps=200 emergamps=600 phases=1 length=380 units=ft
New "Line.g2101kb6100_n300696_sec_1" bus1=g2101kb6100_n300696_sec.1 bus2=g2101kb6100_n300696_sec_1.1 linecode=2/0_2/0 Seasons=1 Ratings=[400,] normamps=230 emergamps=287.5 phases=1 length=150 units=ft
New "Line.05410_5768593ug" bus1=n300696.1 bus2=n300707.1 linecode=UG_1/0_Al_XLPE_35kV_1_Phase Seasons=1 Ratings=[400,] normamps=200 emergamps=600 phases=1 length=110 units=ft