New "Load.159576407_2" phases=3 kV=0.48 bus1=g2101ha2400_n292547_sec_1.1.2.3 xfkVA=28.42 pf=0.98 status=variable model=4 CVRwatts=0.8 CVRvars=3 conn=wye Vminpu=0.7 yearly=LS_ThreePhase allocationfactor=1.158
New "Load.441138834" phases=3 kV=0.48 bus1=g2101ia3300_n292540_sec_1.1.2.3 xfkVA=57.11 pf=0.98 status=variable model=4 CVRwatts=0.8 CVRvars=3 conn=wye Vminpu=0.7 yearly=LS_ThreePhase allocationfactor=1.158
New "Load.871955376" phases=3 kV=0.48 bus1=g2100jp2000_n300602_sec_2.1.2.3 xfkVA=27.23 pf=0.98 status=variable model=4 CVRwatts=0.8 CVRvars=3 conn=wye Vminpu=0.7 yearly=LS_ThreePhase allocationfactor=1.158
New "Load.667750067" phases=3 kV=0.48 bus1=g2100jp2000_n300602_sec_1.1.2.3 xfkVA=0.2426306 pf=0.98 status=variable model=4 CVRwatts=0.8 CVRvars=3 conn=wye Vminpu=0.7 yearly=LS_ThreePhase allocationfactor=1.158
New "Load.939644200" phases=1 kV=0.24 bus1=g2100jp3100_n300601_sec_4.1 xfkVA=10.36 pf=0.98 status=variable model=4 CVRwatts=0.8 CVRvars=3 conn=wye Vminpu=0.7 yearly=LS_PhaseA allocationfactor=1.11
New "Load.816682319" phases=1 kV=0.24 bus1=g2100jp3100_n300601_sec_3.1 xfkVA=7.6881004 pf=0.98 status=variable model=4 CVRwatts=0.8 CVRvars=3 conn=wye Vminpu=0.7 yearly=LS_PhaseA allocationfactor=1.11
New "Load.240437823" phases=1 kV=0.24 bus1=g2100jp3100_n300601_sec_2.1 xfkVA=0.01233714 pf=0.98 status=variable model=4 CVRwatts=0.8 CVRvars=3 conn=wye Vminpu=0.7 yearly=LS_PhaseA allocationfactor=1.11
New "Load.162218124" phases=1 kV=0.24 bus1=g2100jp3100_n300601_sec_1.1 xfkVA=0 pf=0.98 status=variable model=4 CVRwatts=0.8 CVRvars=3 conn=wye Vminpu=0.7 yearly=LS_PhaseA allocationfactor=1.11
New "Load.157688100" phases=1 kV=0.24 bus1=g2100jo5900_n300601_sec_1.3 xfkVA=4.25837281 pf=0.98 status=variable model=4 CVRwatts=0.8 CVRvars=3 conn=wye Vminpu=0.7 yearly=LS_PhaseC allocationfactor=0.8101
New "Load.5567000" phases=3 kV=0.48 bus1=g2100ko6600_n300582_sec_3.1.2.3 xfkVA=15.34 pf=0.98 status=variable model=4 CVRwatts=0.8 CVRvars=3 conn=wye Vminpu=0.7 yearly=LS_ThreePhase allocationfactor=1.158
New "Load.190767000" phases=3 kV=0.48 bus1=g2100ko6600_n300582_sec_2.1.2.3 xfkVA=1.2424227 pf=0.98 status=variable model=4 CVRwatts=0.8 CVRvars=3 conn=wye Vminpu=0.7 yearly=LS_ThreePhase allocationfactor=1.158
New "Load.189767000" phases=3 kV=0.48 bus1=g2100ko6600_n300582_sec_1.1.2.3 xfkVA=4.27969115 pf=0.98 status=variable model=4 CVRwatts=0.8 CVRvars=3 conn=wye Vminpu=0.7 yearly=LS_ThreePhase allocationfactor=1.158
New "Load.558758100" phases=3 kV=0.48 bus1=g2100ko2700_n300582_sec_7.1.2.3 xfkVA=13.24 pf=0.98 status=variable model=4 CVRwatts=0.8 CVRvars=3 conn=wye Vminpu=0.7 yearly=LS_ThreePhase allocationfactor=1.158
New "Load.557758100" phases=3 kV=0.48 bus1=g2100ko2700_n300582_sec_6.1.2.3 xfkVA=2.16928214 pf=0.98 status=variable model=4 CVRwatts=0.8 CVRvars=3 conn=wye Vminpu=0.7 yearly=LS_ThreePhase allocationfactor=1.158
New "Load.556758100" phases=3 kV=0.48 bus1=g2100ko2700_n300582_sec_5.1.2.3 xfkVA=3.16036649 pf=0.98 status=variable model=4 CVRwatts=0.8 CVRvars=3 conn=wye Vminpu=0.7 yearly=LS_ThreePhase allocationfactor=1.158
New "Load.555758100" phases=3 kV=0.48 bus1=g2100ko2700_n300582_sec_4.1.2.3 xfkVA=14.22 pf=0.98 status=variable model=4 CVRwatts=0.8 CVRvars=3 conn=wye Vminpu=0.7 yearly=LS_ThreePhase allocationfactor=1.158
New "Load.554758100" phases=3 kV=0.48 bus1=g2100ko2700_n300582_sec_3.1.2.3 xfkVA=7.22 pf=0.98 status=variable model=4 CVRwatts=0.8 CVRvars=3 conn=wye Vminpu=0.7 yearly=LS_ThreePhase allocationfactor=1.158
New "Load.553758100" phases=3 kV=0.48 bus1=g2100ko2700_n300582_sec_2.1.2.3 xfkVA=1.93487629 pf=0.98 status=variable model=4 CVRwatts=0.8 CVRvars=3 conn=wye Vminpu=0.7 yearly=LS_ThreePhase allocationfactor=1.158
New "Load.388284200" phases=3 kV=0.48 bus1=g2100ko2700_n300582_sec_1.1.2.3 xfkVA=34.81 pf=0.98 status=variable model=4 CVRwatts=0.8 CVRvars=3 conn=wye Vminpu=0.7 yearly=LS_ThreePhase allocationfactor=1.158
New "Load.848904428" phases=1 kV=0.24 bus1=g2100ko9900_n300626_sec_2.1 xfkVA=0.63947558 pf=0.98 status=variable model=4 CVRwatts=0.8 CVRvars=3 conn=wye Vminpu=0.7 yearly=LS_PhaseA allocationfactor=1.11
New "Load.797925594" phases=1 kV=0.24 bus1=g2100ko9900_n300626_sec_1.1 xfkVA=2.02946111 pf=0.98 status=variable model=4 CVRwatts=0.8 CVRvars=3 conn=wye Vminpu=0.7 yearly=LS_PhaseA allocationfactor=1.11
New "Load.942302373" phases=1 kV=0.24 bus1=g2101ja8400_n300634_sec_3.1 xfkVA=0 pf=0.98 status=variable model=4 CVRwatts=0.8 CVRvars=3 conn=wye Vminpu=0.7 yearly=LS_PhaseA allocationfactor=1.11
New "Load.849812180" phases=1 kV=0.24 bus1=g2101ja8400_n300634_sec_2.1 xfkVA=11.8 pf=0.98 status=variable model=4 CVRwatts=0.8 CVRvars=3 conn=wye Vminpu=0.7 yearly=LS_PhaseA allocationfactor=1.11
New "Load.268619359" phases=1 kV=0.24 bus1=g2101ja8400_n300634_sec_1.1 xfkVA=0 pf=0.98 status=variable model=4 CVRwatts=0.8 CVRvars=3 conn=wye Vminpu=0.7 yearly=LS_PhaseA allocationfactor=1.11
New "Load.954681138" phases=1 kV=0.24 bus1=g2101ka2300_n300631_sec_22.1 xfkVA=1.64245318 pf=0.98 status=variable model=4 CVRwatts=0.8 CVRvars=3 conn=wye Vminpu=0.7 yearly=LS_PhaseA allocationfactor=1.11
New "Load.938652033" phases=1 kV=0.24 bus1=g2101ka2300_n300631_sec_21.1 xfkVA=2.7853974 pf=0.98 status=variable model=4 CVRwatts=0.8 CVRvars=3 conn=wye Vminpu=0.7 yearly=LS_PhaseA allocationfactor=1.11
New "Load.898536208" phases=1 kV=0.24 bus1=g2101ka2300_n300631_sec_20.1 xfkVA=3.06478377 pf=0.98 status=variable model=4 CVRwatts=0.8 CVRvars=3 conn=wye Vminpu=0.7 yearly=LS_PhaseA allocationfactor=1.11
New "Load.83262051" phases=1 kV=0.24 bus1=g2101ka2300_n300631_sec_19.1 xfkVA=1.83717701 pf=0.98 status=variable model=4 CVRwatts=0.8 CVRvars=3 conn=wye Vminpu=0.7 yearly=LS_PhaseA allocationfactor=1.11
New "Load.79788071" phases=1 kV=0.24 bus1=g2101ka2300_n300631_sec_18.1 xfkVA=1.89432422 pf=0.98 status=variable model=4 CVRwatts=0.8 CVRvars=3 conn=wye Vminpu=0.7 yearly=LS_PhaseA allocationfactor=1.11
New "Load.751421238" phases=1 kV=0.24 bus1=g2101ka2300_n300631_sec_17.1 xfkVA=2.72660397 pf=0.98 status=variable model=4 CVRwatts=0.8 CVRvars=3 conn=wye Vminpu=0.7 yearly=LS_PhaseA allocationfactor=1.11
New "Load.692549697" phases=1 kV=0.24 bus1=g2101ka2300_n300631_sec_16.1 xfkVA=28.88 pf=0.98 status=variable model=4 CVRwatts=0.8 CVRvars=3 conn=wye Vminpu=0.7 yearly=LS_PhaseA allocationfactor=1.11
New "Load.683950888" phases=1 kV=0.24 bus1=g2101ka2300_n300631_sec_15.1 xfkVA=2.75788208 pf=0.98 status=variable model=4 CVRwatts=0.8 CVRvars=3 conn=wye Vminpu=0.7 yearly=LS_PhaseA allocationfactor=1.11
New "Load.670074020" phases=1 kV=0.24 bus1=g2101ka2300_n300631_sec_14.1 xfkVA=3.10288191 pf=0.98 status=variable model=4 CVRwatts=0.8 CVRvars=3 conn=wye Vminpu=0.7 yearly=LS_PhaseA allocationfactor=1.11
New "Load.667789463" phases=1 kV=0.24 bus1=g2101ka2300_n300631_sec_13.1 xfkVA=3.12193098 pf=0.98 status=variable model=4 CVRwatts=0.8 CVRvars=3 conn=wye Vminpu=0.7 yearly=LS_PhaseA allocationfactor=1.11
New "Load.663246695" phases=1 kV=0.24 bus1=g2101ka2300_n300631_sec_12.1 xfkVA=3.21505977 pf=0.98 status=variable model=4 CVRwatts=0.8 CVRvars=3 conn=wye Vminpu=0.7 yearly=LS_PhaseA allocationfactor=1.11
New "Load.661271699" phases=1 kV=0.24 bus1=g2101ka2300_n300631_sec_11.1 xfkVA=1.7567476 pf=0.98 status=variable model=4 CVRwatts=0.8 CVRvars=3 conn=wye Vminpu=0.7 yearly=LS_PhaseA allocationfactor=1.11
New "Load.617261928" phases=1 kV=0.24 bus1=g2101ka2300_n300631_sec_10.1 xfkVA=1.63610349 pf=0.98 status=variable model=4 CVRwatts=0.8 CVRvars=3 conn=wye Vminpu=0.7 yearly=LS_PhaseA allocationfactor=1.11
New "Load.490904540" phases=1 kV=0.24 bus1=g2101ka2300_n300631_sec_9.1 xfkVA=2.48272884 pf=0.98 status=variable model=4 CVRwatts=0.8 CVRvars=3 conn=wye Vminpu=0.7 yearly=LS_PhaseA allocationfactor=1.11
New "Load.395909811" phases=1 kV=0.24 bus1=g2101ka2300_n300631_sec_8.1 xfkVA=3.22352602 pf=0.98 status=variable model=4 CVRwatts=0.8 CVRvars=3 conn=wye Vminpu=0.7 yearly=LS_PhaseA allocationfactor=1.11
New "Load.306728144" phases=1 kV=0.24 bus1=g2101ka2300_n300631_sec_7.1 xfkVA=1.03499949 pf=0.98 status=variable model=4 CVRwatts=0.8 CVRvars=3 conn=wye Vminpu=0.7 yearly=LS_PhaseA allocationfactor=1.11
New "Load.282062874" phases=1 kV=0.24 bus1=g2101ka2300_n300631_sec_6.1 xfkVA=1.30773786 pf=0.98 status=variable model=4 CVRwatts=0.8 CVRvars=3 conn=wye Vminpu=0.7 yearly=LS_PhaseA allocationfactor=1.11
New "Load.268056041" phases=1 kV=0.24 bus1=g2101ka2300_n300631_sec_5.1 xfkVA=2.7853974 pf=0.98 status=variable model=4 CVRwatts=0.8 CVRvars=3 conn=wye Vminpu=0.7 yearly=LS_PhaseA allocationfactor=1.11
New "Load.220309403" phases=1 kV=0.24 bus1=g2101ka2300_n300631_sec_4.1 xfkVA=1.79907887 pf=0.98 status=variable model=4 CVRwatts=0.8 CVRvars=3 conn=wye Vminpu=0.7 yearly=LS_PhaseA allocationfactor=1.11
New "Load.191135129" phases=1 kV=0.24 bus1=g2101ka2300_n300631_sec_3.1 xfkVA=0.91012225 pf=0.98 status=variable model=4 CVRwatts=0.8 CVRvars=3 conn=wye Vminpu=0.7 yearly=LS_PhaseA allocationfactor=1.11
New "Load.169508171" phases=1 kV=0.24 bus1=g2101ka2300_n300631_sec_2.1 xfkVA=3.01610281 pf=0.98 status=variable model=4 CVRwatts=0.8 CVRvars=3 conn=wye Vminpu=0.7 yearly=LS_PhaseA allocationfactor=1.11
New "Load.119669823" phases=1 kV=0.24 bus1=g2101ka2300_n300631_sec_1.1 xfkVA=2.15466151 pf=0.98 status=variable model=4 CVRwatts=0.8 CVRvars=3 conn=wye Vminpu=0.7 yearly=LS_PhaseA allocationfactor=1.11
New "Load.99103390" phases=1 kV=0.24 bus1=g2101ka6200_n300623_sec_21.1 xfkVA=2.86794337 pf=0.98 status=variable model=4 CVRwatts=0.8 CVRvars=3 conn=wye Vminpu=0.7 yearly=LS_PhaseA allocationfactor=1.11
New "Load.851912437" phases=1 kV=0.24 bus1=g2101ka6200_n300623_sec_20.1 xfkVA=1.71653289 pf=0.98 status=variable model=4 CVRwatts=0.8 CVRvars=3 conn=wye Vminpu=0.7 yearly=LS_PhaseA allocationfactor=1.11
New "Load.782104237" phases=1 kV=0.24 bus1=g2101ka6200_n300623_sec_19.1 xfkVA=2.41499881 pf=0.98 status=variable model=4 CVRwatts=0.8 CVRvars=3 conn=wye Vminpu=0.7 yearly=LS_PhaseA allocationfactor=1.11
New "Load.770510860" phases=1 kV=0.24 bus1=g2101ka6200_n300623_sec_18.1 xfkVA=1.30362547 pf=0.98 status=variable model=4 CVRwatts=0.8 CVRvars=3 conn=wye Vminpu=0.7 yearly=LS_PhaseA allocationfactor=1.11
New "Load.749280375" phases=1 kV=0.24 bus1=g2101ka6200_n300623_sec_17.1 xfkVA=1.48371092 pf=0.98 status=variable model=4 CVRwatts=0.8 CVRvars=3 conn=wye Vminpu=0.7 yearly=LS_PhaseA allocationfactor=1.11
New "Load.74147288" phases=1 kV=0.24 bus1=g2101ka6200_n300623_sec_16.1 xfkVA=2.66475329 pf=0.98 status=variable model=4 CVRwatts=0.8 CVRvars=3 conn=wye Vminpu=0.7 yearly=LS_PhaseA allocationfactor=1.11
New "Load.654787703" phases=1 kV=0.24 bus1=g2101ka6200_n300623_sec_15.1 xfkVA=2.02978427 pf=0.98 status=variable model=4 CVRwatts=0.8 CVRvars=3 conn=wye Vminpu=0.7 yearly=LS_PhaseA allocationfactor=1.11
New "Load.636688933" phases=1 kV=0.24 bus1=g2101ka6200_n300623_sec_14.1 xfkVA=2.91874089 pf=0.98 status=variable model=4 CVRwatts=0.8 CVRvars=3 conn=wye Vminpu=0.7 yearly=LS_PhaseA allocationfactor=1.11
New "Load.610833539" phases=1 kV=0.24 bus1=g2101ka6200_n300623_sec_13.1 xfkVA=2.92509058 pf=0.98 status=variable model=4 CVRwatts=0.8 CVRvars=3 conn=wye Vminpu=0.7 yearly=LS_PhaseA allocationfactor=1.11
New "Load.599899371" phases=1 kV=0.24 bus1=g2101ka6200_n300623_sec_12.1 xfkVA=2.73883301 pf=0.98 status=variable model=4 CVRwatts=0.8 CVRvars=3 conn=wye Vminpu=0.7 yearly=LS_PhaseA allocationfactor=1.11
New "Load.594755052" phases=1 kV=0.24 bus1=g2101ka6200_n300623_sec_11.1 xfkVA=2.22239154 pf=0.98 status=variable model=4 CVRwatts=0.8 CVRvars=3 conn=wye Vminpu=0.7 yearly=LS_PhaseA allocationfactor=1.11
New "Load.554747843" phases=1 kV=0.24 bus1=g2101ka6200_n300623_sec_10.1 xfkVA=0.81699346 pf=0.98 status=variable model=4 CVRwatts=0.8 CVRvars=3 conn=wye Vminpu=0.7 yearly=LS_PhaseA allocationfactor=1.11
New "Load.548790729" phases=1 kV=0.24 bus1=g2101ka6200_n300623_sec_9.1 xfkVA=2.2943547 pf=0.98 status=variable model=4 CVRwatts=0.8 CVRvars=3 conn=wye Vminpu=0.7 yearly=LS_PhaseA allocationfactor=1.11
New "Load.543401143" phases=1 kV=0.24 bus1=g2101ka6200_n300623_sec_8.1 xfkVA=2.34091909 pf=0.98 status=variable model=4 CVRwatts=0.8 CVRvars=3 conn=wye Vminpu=0.7 yearly=LS_PhaseA allocationfactor=1.11
New "Load.495285325" phases=1 kV=0.24 bus1=g2101ka6200_n300623_sec_7.1 xfkVA=2.20334247 pf=0.98 status=variable model=4 CVRwatts=0.8 CVRvars=3 conn=wye Vminpu=0.7 yearly=LS_PhaseA allocationfactor=1.11
New "Load.475099745" phases=1 kV=0.24 bus1=g2101ka6200_n300623_sec_6.1 xfkVA=2.35361847 pf=0.98 status=variable model=4 CVRwatts=0.8 CVRvars=3 conn=wye Vminpu=0.7 yearly=LS_PhaseA allocationfactor=1.11
New "Load.388775956" phases=1 kV=0.24 bus1=g2101ka6200_n300623_sec_5.1 xfkVA=2.37690067 pf=0.98 status=variable model=4 CVRwatts=0.8 CVRvars=3 conn=wye Vminpu=0.7 yearly=LS_PhaseA allocationfactor=1.11
New "Load.331146118" phases=1 kV=0.24 bus1=g2101ka6200_n300623_sec_4.1 xfkVA=2.30705408 pf=0.98 status=variable model=4 CVRwatts=0.8 CVRvars=3 conn=wye Vminpu=0.7 yearly=LS_PhaseA allocationfactor=1.11
New "Load.254044133" phases=1 kV=0.24 bus1=g2101ka6200_n300623_sec_3.1 xfkVA=2.44039757 pf=0.98 status=variable model=4 CVRwatts=0.8 CVRvars=3 conn=wye Vminpu=0.7 yearly=LS_PhaseA allocationfactor=1.11
New "Load.239850013" phases=1 kV=0.24 bus1=g2101ka6200_n300623_sec_2.1 xfkVA=2.21180873 pf=0.98 status=variable model=4 CVRwatts=0.8 CVRvars=3 conn=wye Vminpu=0.7 yearly=LS_PhaseA allocationfactor=1.11
New "Load.187633031" phases=1 kV=0.24 bus1=g2101ka6200_n300623_sec_1.1 xfkVA=3.32935419 pf=0.98 status=variable model=4 CVRwatts=0.8 CVRvars=3 conn=wye Vminpu=0.7 yearly=LS_PhaseA allocationfactor=1.11
New "Load.206188538" phases=1 kV=0.24 bus1=g2101ka7500_n300643_sec_1.1 xfkVA=1.01164626 pf=0.98 status=variable model=4 CVRwatts=0.8 CVRvars=3 conn=wye Vminpu=0.7 yearly=LS_PhaseA allocationfactor=1.11
New "Load.959950474" phases=1 kV=0.24 bus1=g2101ka6800_n300662_sec_2.1 xfkVA=1.71075141 pf=0.98 status=variable model=4 CVRwatts=0.8 CVRvars=3 conn=wye Vminpu=0.7 yearly=LS_PhaseA allocationfactor=1.11
New "Load.493495454" phases=1 kV=0.24 bus1=g2101ka6800_n300662_sec_1.1 xfkVA=1.13707395 pf=0.98 status=variable model=4 CVRwatts=0.8 CVRvars=3 conn=wye Vminpu=0.7 yearly=LS_PhaseA allocationfactor=1.11
New "Load.896125142" phases=1 kV=0.24 bus1=g2101ka0900_n300672_sec_22.1 xfkVA=2.41711537 pf=0.98 status=variable model=4 CVRwatts=0.8 CVRvars=3 conn=wye Vminpu=0.7 yearly=LS_PhaseA allocationfactor=1.11
New "Load.883840410" phases=1 kV=0.24 bus1=g2101ka0900_n300672_sec_21.1 xfkVA=2.85312743 pf=0.98 status=variable model=4 CVRwatts=0.8 CVRvars=3 conn=wye Vminpu=0.7 yearly=LS_PhaseA allocationfactor=1.11
New "Load.845667746" phases=1 kV=0.24 bus1=g2101ka0900_n300672_sec_20.1 xfkVA=0 pf=0.98 status=variable model=4 CVRwatts=0.8 CVRvars=3 conn=wye Vminpu=0.7 yearly=LS_PhaseA allocationfactor=1.11
New "Load.814028142" phases=1 kV=0.24 bus1=g2101ka0900_n300672_sec_19.1 xfkVA=2.69438518 pf=0.98 status=variable model=4 CVRwatts=0.8 CVRvars=3 conn=wye Vminpu=0.7 yearly=LS_PhaseA allocationfactor=1.11
New "Load.759128392" phases=1 kV=0.24 bus1=g2101ka0900_n300672_sec_18.1 xfkVA=2.91027464 pf=0.98 status=variable model=4 CVRwatts=0.8 CVRvars=3 conn=wye Vminpu=0.7 yearly=LS_PhaseA allocationfactor=1.11
New "Load.752667355" phases=1 kV=0.24 bus1=g2101ka0900_n300672_sec_17.1 xfkVA=3.11981441 pf=0.98 status=variable model=4 CVRwatts=0.8 CVRvars=3 conn=wye Vminpu=0.7 yearly=LS_PhaseA allocationfactor=1.11
New "Load.696589459" phases=1 kV=0.24 bus1=g2101ka0900_n300672_sec_16.1 xfkVA=1.15141047 pf=0.98 status=variable model=4 CVRwatts=0.8 CVRvars=3 conn=wye Vminpu=0.7 yearly=LS_PhaseA allocationfactor=1.11
New "Load.589278413" phases=1 kV=0.24 bus1=g2101ka0900_n300672_sec_15.1 xfkVA=2.77481458 pf=0.98 status=variable model=4 CVRwatts=0.8 CVRvars=3 conn=wye Vminpu=0.7 yearly=LS_PhaseA allocationfactor=1.11
New "Load.559899835" phases=1 kV=0.24 bus1=g2101ka0900_n300672_sec_14.1 xfkVA=1.79659738 pf=0.98 status=variable model=4 CVRwatts=0.8 CVRvars=3 conn=wye Vminpu=0.7 yearly=LS_PhaseA allocationfactor=1.11
New "Load.489339613" phases=1 kV=0.24 bus1=g2101ka0900_n300672_sec_13.1 xfkVA=2.49542822 pf=0.98 status=variable model=4 CVRwatts=0.8 CVRvars=3 conn=wye Vminpu=0.7 yearly=LS_PhaseA allocationfactor=1.11
New "Load.453835987" phases=1 kV=0.24 bus1=g2101ka0900_n300672_sec_12.1 xfkVA=1.93746955 pf=0.98 status=variable model=4 CVRwatts=0.8 CVRvars=3 conn=wye Vminpu=0.7 yearly=LS_PhaseA allocationfactor=1.11
New "Load.444540797" phases=1 kV=0.24 bus1=g2101ka0900_n300672_sec_11.1 xfkVA=2.01285177 pf=0.98 status=variable model=4 CVRwatts=0.8 CVRvars=3 conn=wye Vminpu=0.7 yearly=LS_PhaseA allocationfactor=1.11
New "Load.420097987" phases=1 kV=0.24 bus1=g2101ka0900_n300672_sec_10.1 xfkVA=3.44788174 pf=0.98 status=variable model=4 CVRwatts=0.8 CVRvars=3 conn=wye Vminpu=0.7 yearly=LS_PhaseA allocationfactor=1.11
New "Load.399058879" phases=1 kV=0.24 bus1=g2101ka0900_n300672_sec_9.1 xfkVA=3.19812726 pf=0.98 status=variable model=4 CVRwatts=0.8 CVRvars=3 conn=wye Vminpu=0.7 yearly=LS_PhaseA allocationfactor=1.11
New "Load.303697639" phases=1 kV=0.24 bus1=g2101ka0900_n300672_sec_8.1 xfkVA=1.89855735 pf=0.98 status=variable model=4 CVRwatts=0.8 CVRvars=3 conn=wye Vminpu=0.7 yearly=LS_PhaseA allocationfactor=1.11
New "Load.285343299" phases=1 kV=0.24 bus1=g2101ka0900_n300672_sec_7.1 xfkVA=1.70383351 pf=0.98 status=variable model=4 CVRwatts=0.8 CVRvars=3 conn=wye Vminpu=0.7 yearly=LS_PhaseA allocationfactor=1.11
New "Load.231327897" phases=1 kV=0.24 bus1=g2101ka0900_n300672_sec_6.1 xfkVA=2.45944664 pf=0.98 status=variable model=4 CVRwatts=0.8 CVRvars=3 conn=wye Vminpu=0.7 yearly=LS_PhaseA allocationfactor=1.11
New "Load.225535453" phases=1 kV=0.24 bus1=g2101ka0900_n300672_sec_5.1 xfkVA=2.4446307 pf=0.98 status=variable model=4 CVRwatts=0.8 CVRvars=3 conn=wye Vminpu=0.7 yearly=LS_PhaseA allocationfactor=1.11
New "Load.203769014" phases=1 kV=0.24 bus1=g2101ka0900_n300672_sec_4.1 xfkVA=1.94104487 pf=0.98 status=variable model=4 CVRwatts=0.8 CVRvars=3 conn=wye Vminpu=0.7 yearly=LS_PhaseA allocationfactor=1.11
New "Load.170475742" phases=1 kV=0.24 bus1=g2101ka0900_n300672_sec_3.1 xfkVA=2.60548951 pf=0.98 status=variable model=4 CVRwatts=0.8 CVRvars=3 conn=wye Vminpu=0.7 yearly=LS_PhaseA allocationfactor=1.11
New "Load.111662142" phases=1 kV=0.24 bus1=g2101ka0900_n300672_sec_2.1 xfkVA=3.01186968 pf=0.98 status=variable model=4 CVRwatts=0.8 CVRvars=3 conn=wye Vminpu=0.7 yearly=LS_PhaseA allocationfactor=1.11
New "Load.108094268" phases=1 kV=0.24 bus1=g2101ka0900_n300672_sec_1.1 xfkVA=1.60223847 pf=0.98 status=variable model=4 CVRwatts=0.8 CVRvars=3 conn=wye Vminpu=0.7 yearly=LS_PhaseA allocationfactor=1.11
New "Load.971287338" phases=1 kV=0.24 bus1=g2101ka3900_n300679_sec_21.1 xfkVA=2.22662467 pf=0.98 status=variable model=4 CVRwatts=0.8 CVRvars=3 conn=wye Vminpu=0.7 yearly=LS_PhaseA allocationfactor=1.11
New "Load.887953606" phases=1 kV=0.24 bus1=g2101ka3900_n300679_sec_20.1 xfkVA=3.25739103 pf=0.98 status=variable model=4 CVRwatts=0.8 CVRvars=3 conn=wye Vminpu=0.7 yearly=LS_PhaseA allocationfactor=1.11
New "Load.885827247" phases=1 kV=0.24 bus1=g2101ka3900_n300679_sec_19.1 xfkVA=2.51024416 pf=0.98 status=variable model=4 CVRwatts=0.8 CVRvars=3 conn=wye Vminpu=0.7 yearly=LS_PhaseA allocationfactor=1.11
New "Load.877505552" phases=1 kV=0.24 bus1=g2101ka3900_n300679_sec_18.1 xfkVA=2.71555081 pf=0.98 status=variable model=4 CVRwatts=0.8 CVRvars=3 conn=wye Vminpu=0.7 yearly=LS_PhaseA allocationfactor=1.11
New "Load.692637645" phases=1 kV=0.24 bus1=g2101ka3900_n300679_sec_17.1 xfkVA=2.58855701 pf=0.98 status=variable model=4 CVRwatts=0.8 CVRvars=3 conn=wye Vminpu=0.7 yearly=LS_PhaseA allocationfactor=1.11
New "Load.684282868" phases=1 kV=0.24 bus1=g2101ka3900_n300679_sec_16.1 xfkVA=2.4848454 pf=0.98 status=variable model=4 CVRwatts=0.8 CVRvars=3 conn=wye Vminpu=0.7 yearly=LS_PhaseA allocationfactor=1.11
New "Load.676037107" phases=1 kV=0.24 bus1=g2101ka3900_n300679_sec_15.1 xfkVA=1.48371092 pf=0.98 status=variable model=4 CVRwatts=0.8 CVRvars=3 conn=wye Vminpu=0.7 yearly=LS_PhaseA allocationfactor=1.11
New "Load.671110649" phases=1 kV=0.24 bus1=g2101ka3900_n300679_sec_14.1 xfkVA=1.36729994 pf=0.98 status=variable model=4 CVRwatts=0.8 CVRvars=3 conn=wye Vminpu=0.7 yearly=LS_PhaseA allocationfactor=1.11
New "Load.646979038" phases=1 kV=0.24 bus1=g2101ka3900_n300679_sec_13.1 xfkVA=3.02456906 pf=0.98 status=variable model=4 CVRwatts=0.8 CVRvars=3 conn=wye Vminpu=0.7 yearly=LS_PhaseA allocationfactor=1.11
New "Load.615034342" phases=1 kV=0.24 bus1=g2101ka3900_n300679_sec_12.1 xfkVA=1.06463137 pf=0.98 status=variable model=4 CVRwatts=0.8 CVRvars=3 conn=wye Vminpu=0.7 yearly=LS_PhaseA allocationfactor=1.11
New "Load.595264731" phases=1 kV=0.24 bus1=g2101ka3900_n300679_sec_11.1 xfkVA=3.28278979 pf=0.98 status=variable model=4 CVRwatts=0.8 CVRvars=3 conn=wye Vminpu=0.7 yearly=LS_PhaseA allocationfactor=1.11
New "Load.515022733" phases=1 kV=0.24 bus1=g2101ka3900_n300679_sec_10.1 xfkVA=2.90392495 pf=0.98 status=variable model=4 CVRwatts=0.8 CVRvars=3 conn=wye Vminpu=0.7 yearly=LS_PhaseA allocationfactor=1.11
New "Load.462636268" phases=1 kV=0.24 bus1=g2101ka3900_n300679_sec_9.1 xfkVA=1.62552067 pf=0.98 status=variable model=4 CVRwatts=0.8 CVRvars=3 conn=wye Vminpu=0.7 yearly=LS_PhaseA allocationfactor=1.11
New "Load.439547984" phases=1 kV=0.24 bus1=g2101ka3900_n300679_sec_8.1 xfkVA=4.71993633 pf=0.98 status=variable model=4 CVRwatts=0.8 CVRvars=3 conn=wye Vminpu=0.7 yearly=LS_PhaseA allocationfactor=1.11
New "Load.428572910" phases=1 kV=0.24 bus1=g2101ka3900_n300679_sec_7.1 xfkVA=2.27530563 pf=0.98 status=variable model=4 CVRwatts=0.8 CVRvars=3 conn=wye Vminpu=0.7 yearly=LS_PhaseA allocationfactor=1.11
New "Load.354301464" phases=1 kV=0.24 bus1=g2101ka3900_n300679_sec_6.1 xfkVA=2.85736056 pf=0.98 status=variable model=4 CVRwatts=0.8 CVRvars=3 conn=wye Vminpu=0.7 yearly=LS_PhaseA allocationfactor=1.11
New "Load.33978854" phases=1 kV=0.24 bus1=g2101ka3900_n300679_sec_5.1 xfkVA=2.46007377 pf=0.98 status=variable model=4 CVRwatts=0.8 CVRvars=3 conn=wye Vminpu=0.7 yearly=LS_PhaseA allocationfactor=1.11
New "Load.28295583" phases=1 kV=0.24 bus1=g2101ka3900_n300679_sec_4.1 xfkVA=2.0975143 pf=0.98 status=variable model=4 CVRwatts=0.8 CVRvars=3 conn=wye Vminpu=0.7 yearly=LS_PhaseA allocationfactor=1.11
New "Load.209408392" phases=1 kV=0.24 bus1=g2101ka3900_n300679_sec_3.1 xfkVA=3.52407802 pf=0.98 status=variable model=4 CVRwatts=0.8 CVRvars=3 conn=wye Vminpu=0.7 yearly=LS_PhaseA allocationfactor=1.11
New "Load.199520177" phases=1 kV=0.24 bus1=g2101ka3900_n300679_sec_2.1 xfkVA=1.91337329 pf=0.98 status=variable model=4 CVRwatts=0.8 CVRvars=3 conn=wye Vminpu=0.7 yearly=LS_PhaseA allocationfactor=1.11
New "Load.107633913" phases=1 kV=0.24 bus1=g2101ka3900_n300679_sec_1.1 xfkVA=1.30773786 pf=0.98 status=variable model=4 CVRwatts=0.8 CVRvars=3 conn=wye Vminpu=0.7 yearly=LS_PhaseA allocationfactor=1.11
New "Load.369823827" phases=1 kV=0.24 bus1=g2101kb6100_n300696_sec_1.1 xfkVA=1.1740854 pf=0.98 status=variable model=4 CVRwatts=0.8 CVRvars=3 conn=wye Vminpu=0.7 yearly=LS_PhaseA allocationfactor=1.11
New "Load.363395855" phases=1 kV=0.24 bus1=g2101lb3300_n300707_sec_1.1 xfkVA=4.56474536 pf=0.98 status=variable model=4 CVRwatts=0.8 CVRvars=3 conn=wye Vminpu=0.7 yearly=LS_PhaseA allocationfactor=1.11
New "Load.680873231" phases=1 kV=0.24 bus1=g2101la3600_n300650_sec_2.1 xfkVA=0.78957757 pf=0.98 status=variable model=4 CVRwatts=0.8 CVRvars=3 conn=wye Vminpu=0.7 yearly=LS_PhaseA allocationfactor=1.11
New "Load.426392211" phases=1 kV=0.24 bus1=g2101la3600_n300650_sec_1.1 xfkVA=2.24947361 pf=0.98 status=variable model=4 CVRwatts=0.8 CVRvars=3 conn=wye Vminpu=0.7 yearly=LS_PhaseA allocationfactor=1.11
New "Load.185767000" phases=1 kV=0.24 bus1=g2100mo0000_n300567_sec_3.1 xfkVA=4.36858681 pf=0.98 status=variable model=4 CVRwatts=0.8 CVRvars=3 conn=wye Vminpu=0.7 yearly=LS_PhaseA allocationfactor=1.11
New "Load.184767000" phases=1 kV=0.24 bus1=g2100mo0000_n300567_sec_2.1 xfkVA=0 pf=0.98 status=variable model=4 CVRwatts=0.8 CVRvars=3 conn=wye Vminpu=0.7 yearly=LS_PhaseA allocationfactor=1.11
New "Load.183767000" phases=1 kV=0.24 bus1=g2100mo0000_n300567_sec_1.1 xfkVA=3.35263639 pf=0.98 status=variable model=4 CVRwatts=0.8 CVRvars=3 conn=wye Vminpu=0.7 yearly=LS_PhaseA allocationfactor=1.11
New "Load.181767000" phases=1 kV=0.24 bus1=g2100mn4700_n300558_sec_2.2 xfkVA=1.0286498 pf=0.98 status=variable model=4 CVRwatts=0.8 CVRvars=3 conn=wye Vminpu=0.7 yearly=LS_PhaseB allocationfactor=1.646
New "Load.168767000" phases=1 kV=0.24 bus1=g2100mn4700_n300558_sec_1.2 xfkVA=3.50926208 pf=0.98 status=variable model=4 CVRwatts=0.8 CVRvars=3 conn=wye Vminpu=0.7 yearly=LS_PhaseB allocationfactor=1.646
New "Load.173767000" phases=1 kV=0.24 bus1=g2100nl3900_n300503_sec_2.3 xfkVA=3.87966067 pf=0.98 status=variable model=4 CVRwatts=0.8 CVRvars=3 conn=wye Vminpu=0.7 yearly=LS_PhaseC allocationfactor=0.8101
New "Load.171767000" phases=1 kV=0.24 bus1=g2100nl3900_n300503_sec_1.3 xfkVA=4.19291205 pf=0.98 status=variable model=4 CVRwatts=0.8 CVRvars=3 conn=wye Vminpu=0.7 yearly=LS_PhaseC allocationfactor=0.8101
New "Load.351193009" phases=3 kV=0.48 bus1=g2100nk9200_n300478_sec_1.1.2.3 xfkVA=23.52 pf=0.98 status=variable model=4 CVRwatts=0.8 CVRvars=3 conn=wye Vminpu=0.7 yearly=LS_ThreePhase allocationfactor=1.158
New "Load.666115363" phases=3 kV=0.48 bus1=g2100nj8400_n300472_sec_1.1.2.3 xfkVA=7.09 pf=0.98 status=variable model=4 CVRwatts=0.8 CVRvars=3 conn=wye Vminpu=0.7 yearly=LS_ThreePhase allocationfactor=1.158
New "Load.578349272" phases=1 kV=0.24 bus1=g2100nj7400_n300463_sec_5.1 xfkVA=8.90330964 pf=0.98 status=variable model=4 CVRwatts=0.8 CVRvars=3 conn=wye Vminpu=0.7 yearly=LS_PhaseA allocationfactor=1.11
New "Load.515785200" phases=1 kV=0.24 bus1=g2100nj7400_n300463_sec_4.1 xfkVA=5.11991709 pf=0.98 status=variable model=4 CVRwatts=0.8 CVRvars=3 conn=wye Vminpu=0.7 yearly=LS_PhaseA allocationfactor=1.11
New "Load.514785200" phases=1 kV=0.24 bus1=g2100nj7400_n300463_sec_3.1 xfkVA=0.83275759 pf=0.98 status=variable model=4 CVRwatts=0.8 CVRvars=3 conn=wye Vminpu=0.7 yearly=LS_PhaseA allocationfactor=1.11
New "Load.513785200" phases=1 kV=0.24 bus1=g2100nj7400_n300463_sec_2.1 xfkVA=1.13090538 pf=0.98 status=variable model=4 CVRwatts=0.8 CVRvars=3 conn=wye Vminpu=0.7 yearly=LS_PhaseA allocationfactor=1.11
New "Load.437881000_4" phases=1 kV=0.24 bus1=g2100nj7400_n300463_sec_1.1 xfkVA=52.02 pf=0.98 status=variable model=4 CVRwatts=0.8 CVRvars=3 conn=wye Vminpu=0.7 yearly=LS_PhaseA allocationfactor=1.11
New "Load.998465853" phases=3 kV=0.48 bus1=g2100ni4800_n300455_sec_6.1.2.3 xfkVA=32.77 pf=0.98 status=variable model=4 CVRwatts=0.8 CVRvars=3 conn=wye Vminpu=0.7 yearly=LS_ThreePhase allocationfactor=1.158
New "Load.918508931" phases=3 kV=0.48 bus1=g2100ni4800_n300455_sec_5.1.2.3 xfkVA=154.46 pf=0.98 status=variable model=4 CVRwatts=0.8 CVRvars=3 conn=wye Vminpu=0.7 yearly=LS_ThreePhase allocationfactor=1.158
New "Load.773963755" phases=3 kV=0.48 bus1=g2100ni4800_n300455_sec_4.1.2.3 xfkVA=10.95 pf=0.98 status=variable model=4 CVRwatts=0.8 CVRvars=3 conn=wye Vminpu=0.7 yearly=LS_ThreePhase allocationfactor=1.158
New "Load.57272930" phases=3 kV=0.48 bus1=g2100ni4800_n300455_sec_3.1.2.3 xfkVA=79.04 pf=0.98 status=variable model=4 CVRwatts=0.8 CVRvars=3 conn=wye Vminpu=0.7 yearly=LS_ThreePhase allocationfactor=1.158
New "Load.437881000_5" phases=3 kV=0.48 bus1=g2100ni4800_n300455_sec_2.1.2.3 xfkVA=138.16 pf=0.98 status=variable model=4 CVRwatts=0.8 CVRvars=3 conn=wye Vminpu=0.7 yearly=LS_ThreePhase allocationfactor=1.158
New "Load.320382692" phases=3 kV=0.48 bus1=g2100ni4800_n300455_sec_1.1.2.3 xfkVA=150.89 pf=0.98 status=variable model=4 CVRwatts=0.8 CVRvars=3 conn=wye Vminpu=0.7 yearly=LS_ThreePhase allocationfactor=1.158
New "Load.437881000_6" phases=3 kV=0.48 bus1=g2100nj9400_n300465_sec_4.1.2.3 xfkVA=1.4 pf=0.98 status=variable model=4 CVRwatts=0.8 CVRvars=3 conn=wye Vminpu=0.7 yearly=LS_ThreePhase allocationfactor=1.158
New "Load.437881000_3" phases=3 kV=0.48 bus1=g2100nj9400_n300465_sec_3.1.2.3 xfkVA=83.64 pf=0.98 status=variable model=4 CVRwatts=0.8 CVRvars=3 conn=wye Vminpu=0.7 yearly=LS_ThreePhase allocationfactor=1.158
New "Load.437881000_2" phases=3 kV=0.48 bus1=g2100nj9400_n300465_sec_2.1.2.3 xfkVA=216.86 pf=0.98 status=variable model=4 CVRwatts=0.8 CVRvars=3 conn=wye Vminpu=0.7 yearly=LS_ThreePhase allocationfactor=1.158
New "Load.387284200" phases=3 kV=0.48 bus1=g2100nj9400_n300465_sec_1.1.2.3 xfkVA=90.49 pf=0.98 status=variable model=4 CVRwatts=0.8 CVRvars=3 conn=wye Vminpu=0.7 yearly=LS_ThreePhase allocationfactor=1.158
New "Load.821954908" phases=1 kV=0.24 bus1=g2100oj3400_n300469_sec_7.2 xfkVA=0.47086787 pf=0.98 status=variable model=4 CVRwatts=0.8 CVRvars=3 conn=wye Vminpu=0.7 yearly=LS_PhaseB allocationfactor=1.646
New "Load.732955200" phases=1 kV=0.24 bus1=g2100oj3400_n300469_sec_6.2 xfkVA=15.51 pf=0.98 status=variable model=4 CVRwatts=0.8 CVRvars=3 conn=wye Vminpu=0.7 yearly=LS_PhaseB allocationfactor=1.646
New "Load.713073804" phases=1 kV=0.24 bus1=g2100oj3400_n300469_sec_5.2 xfkVA=8.35 pf=0.98 status=variable model=4 CVRwatts=0.8 CVRvars=3 conn=wye Vminpu=0.7 yearly=LS_PhaseB allocationfactor=1.646
New "Load.454240723" phases=1 kV=0.24 bus1=g2100oj3400_n300469_sec_4.2 xfkVA=0.21795631 pf=0.98 status=variable model=4 CVRwatts=0.8 CVRvars=3 conn=wye Vminpu=0.7 yearly=LS_PhaseB allocationfactor=1.646
New "Load.438881000" phases=1 kV=0.24 bus1=g2100oj3400_n300469_sec_3.2 xfkVA=3.55515528 pf=0.98 status=variable model=4 CVRwatts=0.8 CVRvars=3 conn=wye Vminpu=0.7 yearly=LS_PhaseB allocationfactor=1.646
New "Load.177767000" phases=1 kV=0.24 bus1=g2100oj3400_n300469_sec_2.2 xfkVA=5.6565831 pf=0.98 status=variable model=4 CVRwatts=0.8 CVRvars=3 conn=wye Vminpu=0.7 yearly=LS_PhaseB allocationfactor=1.646