New "Transformer.05410_g2101ha2400" phases=3 buses=[n292547.1.2.3, g2101ha2400_n292547_sec.1.2.3, ] conns=[wye, wye, ] kVs=[34.5, 0.48, ] kVAs=[75, 75, ] taps=[1, 1, ] wdg=1 %R=0.658 RdcOhms=29.58697 wdg=2 %R=0.658 RdcOhms=0.005727232 %imag=0.5 %loadloss=1.316 %noloadloss=0.198 XHL=1.745
New "Transformer.05410_g2101ha7500" phases=1 buses=[n292550.3, g2101ha7500_n292550_sec.3, ] conns=[wye, wye, ] kVs=[19.91858, 0.24, ] kVAs=[25, 25, ] taps=[1, 1, ] wdg=1 %R=0.658 RdcOhms=88.76091 wdg=2 %R=0.658 RdcOhms=0.01288627 %imag=0.5 %loadloss=1.316 %noloadloss=0.198 XHL=1.745
New "Transformer.05410_g2101ia8100" phases=1 buses=[n292540.2, g2101ia8100_n292540_sec_a.2, ] conns=[wye, wye, ] kVs=[19.91858, 0.24, ] kVAs=[15, 15, ] taps=[1, 1, ] wdg=1 %R=0.7466667 RdcOhms=167.8693 wdg=2 %R=0.7466667 RdcOhms=0.0243712 %imag=0.5 %loadloss=1.493333 %noloadloss=0.2733333 XHL=2.18
New "Transformer.05410_g2101ia3300" phases=3 buses=[n292540.1.2.3, g2101ia3300_n292540_sec.1.2.3, ] conns=[wye, wye, ] kVs=[34.5, 0.48, ] kVAs=[150, 150, ] taps=[1, 1, ] wdg=1 %R=0.567 RdcOhms=12.74758 wdg=2 %R=0.567 RdcOhms=0.002467584 %imag=0.5 %loadloss=1.134 %noloadloss=0.181 XHL=1.965
New "Transformer.05410_g2100jp2000" phases=3 buses=[n300602.1.2.3, g2100jp2000_n300602_sec.1.2.3, ] conns=[wye, wye, ] kVs=[34.5, 0.48, ] kVAs=[75, 75, ] taps=[1, 1, ] wdg=1 %R=0.658 RdcOhms=29.58697 wdg=2 %R=0.658 RdcOhms=0.005727232 %imag=0.5 %loadloss=1.316 %noloadloss=0.198 XHL=1.745
New "Transformer.05410_g2100jp3100" phases=1 buses=[n300601.1, g2100jp3100_n300601_sec.1, ] conns=[wye, wye, ] kVs=[19.91858, 0.24, ] kVAs=[25, 25, ] taps=[1, 1, ] wdg=1 %R=0.658 RdcOhms=88.76091 wdg=2 %R=0.658 RdcOhms=0.01288627 %imag=0.5 %loadloss=1.316 %noloadloss=0.198 XHL=1.745
New "Transformer.05410_g2100jo5900" phases=1 buses=[n300601.3, g2100jo5900_n300601_sec.3, ] conns=[wye, wye, ] kVs=[19.91858, 0.24, ] kVAs=[50, 50, ] taps=[1, 1, ] wdg=1 %R=0.567 RdcOhms=38.24273 wdg=2 %R=0.567 RdcOhms=0.005552064 %imag=0.5 %loadloss=1.134 %noloadloss=0.181 XHL=1.965
New "Transformer.05410_g2100ko6600" phases=3 buses=[n300582.1.2.3, g2100ko6600_n300582_sec.1.2.3, ] conns=[wye, wye, ] kVs=[34.5, 0.48, ] kVAs=[75, 75, ] taps=[1, 1, ] wdg=1 %R=0.658 RdcOhms=29.58697 wdg=2 %R=0.658 RdcOhms=0.005727232 %imag=0.5 %loadloss=1.316 %noloadloss=0.198 XHL=1.745
New "Transformer.05410_g2100ko2700" phases=3 buses=[n300582.1.2.3, g2100ko2700_n300582_sec.1.2.3, ] conns=[wye, wye, ] kVs=[34.5, 0.48, ] kVAs=[150, 150, ] taps=[1, 1, ] wdg=1 %R=0.567 RdcOhms=12.74758 wdg=2 %R=0.567 RdcOhms=0.002467584 %imag=0.5 %loadloss=1.134 %noloadloss=0.181 XHL=1.965
New "Transformer.05410_g2100ko9900" phases=1 buses=[n300626.1, g2100ko9900_n300626_sec.1, ] conns=[wye, wye, ] kVs=[19.91858, 0.24, ] kVAs=[167, 167, ] taps=[1, 1, ] wdg=1 %R=0.4167665 RdcOhms=8.416125 wdg=2 %R=0.4167665 RdcOhms=0.001221849 %imag=0.5 %loadloss=0.8335329 %noloadloss=0.161976 XHL=2.355
New "Transformer.05410_g2101ja8400" phases=1 buses=[n300634.1, g2101ja8400_n300634_sec.1, ] conns=[wye, wye, ] kVs=[19.91858, 0.24, ] kVAs=[167, 167, ] taps=[1, 1, ] wdg=1 %R=0.4167665 RdcOhms=8.416125 wdg=2 %R=0.4167665 RdcOhms=0.001221849 %imag=0.5 %loadloss=0.8335329 %noloadloss=0.161976 XHL=2.355
New "Transformer.05410_g2101ka2300" phases=1 buses=[n300631.1, g2101ka2300_n300631_sec.1, ] conns=[wye, wye, ] kVs=[19.91858, 0.24, ] kVAs=[167, 167, ] taps=[1, 1, ] wdg=1 %R=0.4167665 RdcOhms=8.416125 wdg=2 %R=0.4167665 RdcOhms=0.001221849 %imag=0.5 %loadloss=0.8335329 %noloadloss=0.161976 XHL=2.355
New "Transformer.05410_g2101ka6200" phases=1 buses=[n300623.1, g2101ka6200_n300623_sec.1, ] conns=[wye, wye, ] kVs=[19.91858, 0.24, ] kVAs=[167, 167, ] taps=[1, 1, ] wdg=1 %R=0.4167665 RdcOhms=8.416125 wdg=2 %R=0.4167665 RdcOhms=0.001221849 %imag=0.5 %loadloss=0.8335329 %noloadloss=0.161976 XHL=2.355
New "Transformer.05410_g2101ka8300" phases=1 buses=[n300629.1, g2101ka8300_n300629_sec.1, ] conns=[wye, wye, ] kVs=[19.91858, 0.24, ] kVAs=[167, 167, ] taps=[1, 1, ] wdg=1 %R=0.4167665 RdcOhms=8.416125 wdg=2 %R=0.4167665 RdcOhms=0.001221849 %imag=0.5 %loadloss=0.8335329 %noloadloss=0.161976 XHL=2.355
New "Transformer.05410_g2101ka7500" phases=1 buses=[n300643.1, g2101ka7500_n300643_sec.1, ] conns=[wye, wye, ] kVs=[19.91858, 0.24, ] kVAs=[167, 167, ] taps=[1, 1, ] wdg=1 %R=0.4167665 RdcOhms=8.416125 wdg=2 %R=0.4167665 RdcOhms=0.001221849 %imag=0.5 %loadloss=0.8335329 %noloadloss=0.161976 XHL=2.355
New "Transformer.05410_g2101ka6800" phases=1 buses=[n300662.1, g2101ka6800_n300662_sec.1, ] conns=[wye, wye, ] kVs=[19.91858, 0.24, ] kVAs=[167, 167, ] taps=[1, 1, ] wdg=1 %R=0.4167665 RdcOhms=8.416125 wdg=2 %R=0.4167665 RdcOhms=0.001221849 %imag=0.5 %loadloss=0.8335329 %noloadloss=0.161976 XHL=2.355
New "Transformer.05410_g2101ka0900" phases=1 buses=[n300672.1, g2101ka0900_n300672_sec.1, ] conns=[wye, wye, ] kVs=[19.91858, 0.24, ] kVAs=[167, 167, ] taps=[1, 1, ] wdg=1 %R=0.4167665 RdcOhms=8.416125 wdg=2 %R=0.4167665 RdcOhms=0.001221849 %imag=0.5 %loadloss=0.8335329 %noloadloss=0.161976 XHL=2.355
New "Transformer.05410_g2101ka3900" phases=1 buses=[n300679.1, g2101ka3900_n300679_sec.1, ] conns=[wye, wye, ] kVs=[19.91858, 0.24, ] kVAs=[167, 167, ] taps=[1, 1, ] wdg=1 %R=0.4167665 RdcOhms=8.416125 wdg=2 %R=0.4167665 RdcOhms=0.001221849 %imag=0.5 %loadloss=0.8335329 %noloadloss=0.161976 XHL=2.355
New "Transformer.05410_g2101lb0200" phases=1 buses=[n300696.1, g2101lb0200_n300696_sec.1, ] conns=[wye, wye, ] kVs=[19.91858, 0.24, ] kVAs=[167, 167, ] taps=[1, 1, ] wdg=1 %R=0.4167665 RdcOhms=8.416125 wdg=2 %R=0.4167665 RdcOhms=0.001221849 %imag=0.5 %loadloss=0.8335329 %noloadloss=0.161976 XHL=2.355
New "Transformer.05410_g2101kb6100" phases=1 buses=[n300696.1, g2101kb6100_n300696_sec.1, ] conns=[wye, wye, ] kVs=[19.91858, 0.24, ] kVAs=[167, 167, ] taps=[1, 1, ] wdg=1 %R=0.4167665 RdcOhms=8.416125 wdg=2 %R=0.4167665 RdcOhms=0.001221849 %imag=0.5 %loadloss=0.8335329 %noloadloss=0.161976 XHL=2.355
New "Transformer.05410_g2101lb3300" phases=1 buses=[n300707.1, g2101lb3300_n300707_sec.1, ] conns=[wye, wye, ] kVs=[19.91858, 0.24, ] kVAs=[167, 167, ] taps=[1, 1, ] wdg=1 %R=0.4167665 RdcOhms=8.416125 wdg=2 %R=0.4167665 RdcOhms=0.001221849 %imag=0.5 %loadloss=0.8335329 %noloadloss=0.161976 XHL=2.355
New "Transformer.05410_g2101lb4400" phases=1 buses=[n300709.1, g2101lb4400_n300709_sec.1, ] conns=[wye, wye, ] kVs=[19.91858, 0.24, ] kVAs=[167, 167, ] taps=[1, 1, ] wdg=1 %R=0.4167665 RdcOhms=8.416125 wdg=2 %R=0.4167665 RdcOhms=0.001221849 %imag=0.5 %loadloss=0.8335329 %noloadloss=0.161976 XHL=2.355
New "Transformer.05410_g2101lb6300" phases=1 buses=[n300708.1, g2101lb6300_n300708_sec.1, ] conns=[wye, wye, ] kVs=[19.91858, 0.24, ] kVAs=[167, 167, ] taps=[1, 1, ] wdg=1 %R=0.4167665 RdcOhms=8.416125 wdg=2 %R=0.4167665 RdcOhms=0.001221849 %imag=0.5 %loadloss=0.8335329 %noloadloss=0.161976 XHL=2.355
New "Transformer.05410_g2101la6700" phases=1 buses=[n300658.1, g2101la6700_n300658_sec.1, ] conns=[wye, wye, ] kVs=[19.91858, 0.24, ] kVAs=[167, 167, ] taps=[1, 1, ] wdg=1 %R=0.4167665 RdcOhms=8.416125 wdg=2 %R=0.4167665 RdcOhms=0.001221849 %imag=0.5 %loadloss=0.8335329 %noloadloss=0.161976 XHL=2.355
New "Transformer.05410_g2101la3600" phases=1 buses=[n300650.1, g2101la3600_n300650_sec.1, ] conns=[wye, wye, ] kVs=[19.91858, 0.24, ] kVAs=[167, 167, ] taps=[1, 1, ] wdg=1 %R=0.4167665 RdcOhms=8.416125 wdg=2 %R=0.4167665 RdcOhms=0.001221849 %imag=0.5 %loadloss=0.8335329 %noloadloss=0.161976 XHL=2.355
New "Transformer.05410_g2100mo0000" phases=1 buses=[n300567.1, g2100mo0000_n300567_sec.1, ] conns=[wye, wye, ] kVs=[19.91858, 0.24, ] kVAs=[50, 50, ] taps=[1, 1, ] wdg=1 %R=0.567 RdcOhms=38.24273 wdg=2 %R=0.567 RdcOhms=0.005552064 %imag=0.5 %loadloss=1.134 %noloadloss=0.181 XHL=1.965
New "Transformer.05410_g2100mn4700" phases=1 buses=[n300558.2, g2100mn4700_n300558_sec.2, ] conns=[wye, wye, ] kVs=[19.91858, 0.24, ] kVAs=[50, 50, ] taps=[1, 1, ] wdg=1 %R=0.567 RdcOhms=38.24273 wdg=2 %R=0.567 RdcOhms=0.005552064 %imag=0.5 %loadloss=1.134 %noloadloss=0.181 XHL=1.965
New "Transformer.05410_g2100mn9200" phases=1 buses=[n300536.3, g2100mn9200_n300536_sec.3, ] conns=[wye, wye, ] kVs=[19.91858, 0.24, ] kVAs=[10, 10, ] taps=[1, 1, ] wdg=1 %R=0.7 RdcOhms=236.0663 wdg=2 %R=0.7 RdcOhms=0.034272 %imag=0.5 %loadloss=1.4 %noloadloss=0.325 XHL=1.575
New "Transformer.05410_g2100mn1400" phases=1 buses=[n300510.1, g2100mn1400_n300510_sec.1, ] conns=[wye, wye, ] kVs=[19.91858, 0.24, ] kVAs=[10, 10, ] taps=[1, 1, ] wdg=1 %R=0.7 RdcOhms=236.0663 wdg=2 %R=0.7 RdcOhms=0.034272 %imag=0.5 %loadloss=1.4 %noloadloss=0.325 XHL=1.575
New "Transformer.05410_g2100nl3900" phases=1 buses=[n300503.3, g2100nl3900_n300503_sec.3, ] conns=[wye, wye, ] kVs=[19.91858, 0.24, ] kVAs=[25, 25, ] taps=[1, 1, ] wdg=1 %R=0.658 RdcOhms=88.76091 wdg=2 %R=0.658 RdcOhms=0.01288627 %imag=0.5 %loadloss=1.316 %noloadloss=0.198 XHL=1.745
New "Transformer.05410_g2100ml7400" phases=1 buses=[n300497.3, g2100ml7400_n300497_sec.3, ] conns=[wye, wye, ] kVs=[19.91858, 0.24, ] kVAs=[15, 15, ] taps=[1, 1, ] wdg=1 %R=0.7466667 RdcOhms=167.8693 wdg=2 %R=0.7466667 RdcOhms=0.0243712 %imag=0.5 %loadloss=1.493333 %noloadloss=0.2733333 XHL=2.18
New "Transformer.05410_g2100mk7800" phases=1 buses=[n300492.3, g2100mk7800_n300492_sec.3, ] conns=[wye, wye, ] kVs=[19.91858, 0.24, ] kVAs=[10, 10, ] taps=[1, 1, ] wdg=1 %R=0.7 RdcOhms=236.0663 wdg=2 %R=0.7 RdcOhms=0.034272 %imag=0.5 %loadloss=1.4 %noloadloss=0.325 XHL=1.575
New "Transformer.05410_g2100nk6800" phases=1 buses=[n300481.2, g2100nk6800_n300481_sec.2, ] conns=[wye, wye, ] kVs=[19.91858, 0.24, ] kVAs=[25, 25, ] taps=[1, 1, ] wdg=1 %R=0.658 RdcOhms=88.76091 wdg=2 %R=0.658 RdcOhms=0.01288627 %imag=0.5 %loadloss=1.316 %noloadloss=0.198 XHL=1.745
New "Transformer.05410_g2100nk9200" phases=3 buses=[n300478.1.2.3, g2100nk9200_n300478_sec.1.2.3, ] conns=[wye, wye, ] kVs=[34.5, 0.48, ] kVAs=[75, 75, ] taps=[1, 1, ] wdg=1 %R=0.658 RdcOhms=29.58697 wdg=2 %R=0.658 RdcOhms=0.005727232 %imag=0.5 %loadloss=1.316 %noloadloss=0.198 XHL=1.745
New "Transformer.05410_g2100nj8400" phases=3 buses=[n300472.1.2.3, g2100nj8400_n300472_sec.1.2.3, ] conns=[wye, wye, ] kVs=[34.5, 0.48, ] kVAs=[300, 300, ] taps=[1, 1, ] wdg=1 %R=0.4090833 RdcOhms=4.598608 wdg=2 %R=0.4090833 RdcOhms=0.0008901653 %imag=0.5 %loadloss=0.8181667 %noloadloss=0.1525 XHL=3.505
New "Transformer.05410_g2100nj7400" phases=1 buses=[n300463.1, g2100nj7400_n300463_sec.1, ] conns=[wye, wye, ] kVs=[19.91858, 0.24, ] kVAs=[25, 25, ] taps=[1, 1, ] wdg=1 %R=0.633 RdcOhms=85.38854 wdg=2 %R=0.633 RdcOhms=0.01239667 %imag=0.5 %loadloss=1.266 %noloadloss=0.248 XHL=1.835
New "Transformer.05410_g2100ni4800" phases=3 buses=[n300455.1.2.3, g2100ni4800_n300455_sec.1.2.3, ] conns=[wye, wye, ] kVs=[34.5, 0.48, ] kVAs=[1500, 1500, ] taps=[1, 1, ] wdg=1 %R=0.33725 RdcOhms=0.7582223 wdg=2 %R=0.33725 RdcOhms=0.0001467712 %imag=0.5 %loadloss=0.6745 %noloadloss=0.1279 XHL=5.46
New "Transformer.05410_g2100nj9400" phases=3 buses=[n300465.1.2.3, g2100nj9400_n300465_sec.1.2.3, ] conns=[wye, wye, ] kVs=[34.5, 0.48, ] kVAs=[1000, 1000, ] taps=[1, 1, ] wdg=1 %R=0.37995 RdcOhms=1.281334 wdg=2 %R=0.37995 RdcOhms=0.0002480314 %imag=0.5 %loadloss=0.7599 %noloadloss=0.13255 XHL=5.415
New "Transformer.step_05410_g2100oj1900" phases=1 buses=[n300474.2, n300474_lo.2, ] conns=[wye, wye, ] kVs=[19.92, 7.62, ] kVAs=[167, 167, ] taps=[1, 1, ] wdg=1 %R=0.395 RdcOhms=7.97771 wdg=2 %R=0.395 RdcOhms=1.167373 XHL=4.2 %Rs=[0.395, 0.395, ] %noloadloss=0.1778 sub=no
New "Transformer.05410_g2100oj3400" phases=1 buses=[n300469.2, g2100oj3400_n300469_sec.2, ] conns=[wye, wye, ] kVs=[7.621024, 0.24, ] kVAs=[50, 50, ] taps=[1, 1, ] wdg=1 %R=0.4385 RdcOhms=4.329574 wdg=2 %R=0.4385 RdcOhms=0.004293792 %imag=0.5 %loadloss=0.877 %noloadloss=0.181 XHL=2.025
New "Transformer.05410_g2100oj3600" phases=1 buses=[n300452.2, g2100oj3600_n300452_sec.2, ] conns=[wye, wye, ] kVs=[7.621024, 0.24, ] kVAs=[50, 50, ] taps=[1, 1, ] wdg=1 %R=0.4385 RdcOhms=4.329574 wdg=2 %R=0.4385 RdcOhms=0.004293792 %imag=0.5 %loadloss=0.877 %noloadloss=0.181 XHL=2.025
New "Transformer.05410_g2100ok3900" phases=1 buses=[n300495.1, g2100ok3900_n300495_sec.1, ] conns=[wye, wye, ] kVs=[19.91858, 0.24, ] kVAs=[50, 50, ] taps=[1, 1, ] wdg=1 %R=0.4385 RdcOhms=29.57573 wdg=2 %R=0.4385 RdcOhms=0.004293792 %imag=0.5 %loadloss=0.877 %noloadloss=0.181 XHL=2.025
New "Transformer.05410_g2100nn4200" phases=1 buses=[n300548.3, g2100nn4200_n300548_sec.3, ] conns=[wye, wye, ] kVs=[19.91858, 0.24, ] kVAs=[50, 50, ] taps=[1, 1, ] wdg=1 %R=0.567 RdcOhms=38.24273 wdg=2 %R=0.567 RdcOhms=0.005552064 %imag=0.5 %loadloss=1.134 %noloadloss=0.181 XHL=1.965
New "Transformer.05410_g2100nm7500" phases=1 buses=[n300513.1, g2100nm7500_n300513_sec.1, ] conns=[wye, wye, ] kVs=[19.91858, 0.24, ] kVAs=[100, 100, ] taps=[1, 1, ] wdg=1 %R=0.67875 RdcOhms=22.89 wdg=2 %R=0.67875 RdcOhms=0.00332316 %imag=0.5 %loadloss=1.3575 %noloadloss=0.131 XHL=3.29
New "Transformer.05410_g2100nm6600" phases=1 buses=[n300513.1, g2100nm6600_n300513_sec.1, ] conns=[wye, wye, ] kVs=[19.91858, 0.24, ] kVAs=[100, 100, ] taps=[1, 1, ] wdg=1 %R=0.67875 RdcOhms=22.89 wdg=2 %R=0.67875 RdcOhms=0.00332316 %imag=0.5 %loadloss=1.3575 %noloadloss=0.131 XHL=3.29
New "Transformer.05410_g2100nm4100" phases=1 buses=[n300509.1, g2100nm4100_n300509_sec.1, ] conns=[wye, wye, ] kVs=[19.91858, 0.24, ] kVAs=[100, 100, ] taps=[1, 1, ] wdg=1 %R=0.67875 RdcOhms=22.89 wdg=2 %R=0.67875 RdcOhms=0.00332316 %imag=0.5 %loadloss=1.3575 %noloadloss=0.131 XHL=3.29
New "Transformer.05410_g2100nl6900" phases=1 buses=[n300504.1, g2100nl6900_n300504_sec.1, ] conns=[wye, wye, ] kVs=[19.91858, 0.24, ] kVAs=[100, 100, ] taps=[1, 1, ] wdg=1 %R=0.67875 RdcOhms=22.89 wdg=2 %R=0.67875 RdcOhms=0.00332316 %imag=0.5 %loadloss=1.3575 %noloadloss=0.131 XHL=3.29
New "Transformer.05410_g2100om2900" phases=1 buses=[n300514.1, g2100om2900_n300514_sec.1, ] conns=[wye, wye, ] kVs=[19.91858, 0.24, ] kVAs=[100, 100, ] taps=[1, 1, ] wdg=1 %R=0.67875 RdcOhms=22.89 wdg=2 %R=0.67875 RdcOhms=0.00332316 %imag=0.5 %loadloss=1.3575 %noloadloss=0.131 XHL=3.29
New "Transformer.05410_g2100om0900" phases=1 buses=[n300535.1, g2100om0900_n300535_sec.1, ] conns=[wye, wye, ] kVs=[19.91858, 0.24, ] kVAs=[100, 100, ] taps=[1, 1, ] wdg=1 %R=0.67875 RdcOhms=22.89 wdg=2 %R=0.67875 RdcOhms=0.00332316 %imag=0.5 %loadloss=1.3575 %noloadloss=0.131 XHL=3.29
New "Transformer.05410_g2100on7300" phases=1 buses=[n300541.1, g2100on7300_n300541_sec.1, ] conns=[wye, wye, ] kVs=[19.91858, 0.24, ] kVAs=[100, 100, ] taps=[1, 1, ] wdg=1 %R=0.67875 RdcOhms=22.89 wdg=2 %R=0.67875 RdcOhms=0.00332316 %imag=0.5 %loadloss=1.3575 %noloadloss=0.131 XHL=3.29
New "Transformer.05410_g2100on7400" phases=1 buses=[n300547.1, g2100on7400_n300547_sec.1, ] conns=[wye, wye, ] kVs=[19.91858, 0.24, ] kVAs=[100, 100, ] taps=[1, 1, ] wdg=1 %R=0.67875 RdcOhms=22.89 wdg=2 %R=0.67875 RdcOhms=0.00332316 %imag=0.5 %loadloss=1.3575 %noloadloss=0.131 XHL=3.29
New "Transformer.05410_g2100pn0800" phases=1 buses=[n300563.1, g2100pn0800_n300563_sec.1, ] conns=[wye, wye, ] kVs=[19.91858, 0.24, ] kVAs=[100, 100, ] taps=[1, 1, ] wdg=1 %R=0.67875 RdcOhms=22.89 wdg=2 %R=0.67875 RdcOhms=0.00332316 %imag=0.5 %loadloss=1.3575 %noloadloss=0.131 XHL=3.29
New "Transformer.05410_g2100on6900" phases=1 buses=[n300568.1, g2100on6900_n300568_sec.1, ] conns=[wye, wye, ] kVs=[19.91858, 0.24, ] kVAs=[100, 100, ] taps=[1, 1, ] wdg=1 %R=0.67875 RdcOhms=22.89 wdg=2 %R=0.67875 RdcOhms=0.00332316 %imag=0.5 %loadloss=1.3575 %noloadloss=0.131 XHL=3.29
New "Transformer.05410_g2100oo0200" phases=1 buses=[n300573.1, g2100oo0200_n300573_sec.1, ] conns=[wye, wye, ] kVs=[19.91858, 0.24, ] kVAs=[100, 100, ] taps=[1, 1, ] wdg=1 %R=0.67875 RdcOhms=22.89 wdg=2 %R=0.67875 RdcOhms=0.00332316 %imag=0.5 %loadloss=1.3575 %noloadloss=0.131 XHL=3.29
New "Transformer.05410_g2100oo7600" phases=1 buses=[n300586.1, g2100oo7600_n300586_sec.1, ] conns=[wye, wye, ] kVs=[19.91858, 0.24, ] kVAs=[100, 100, ] taps=[1, 1, ] wdg=1 %R=0.67875 RdcOhms=22.89 wdg=2 %R=0.67875 RdcOhms=0.00332316 %imag=0.5 %loadloss=1.3575 %noloadloss=0.131 XHL=3.29
New "Transformer.05410_g2100po1400" phases=1 buses=[n300580.1, g2100po1400_n300580_sec.1, ] conns=[wye, wye, ] kVs=[19.91858, 0.24, ] kVAs=[50, 50, ] taps=[1, 1, ] wdg=1 %R=0.4385 RdcOhms=29.57573 wdg=2 %R=0.4385 RdcOhms=0.004293792 %imag=0.5 %loadloss=0.877 %noloadloss=0.181 XHL=2.025
New "Transformer.05410_g2100pm3800" phases=1 buses=[n300523.2, g2100pm3800_n300523_sec.2, ] conns=[wye, wye, ] kVs=[19.91858, 0.24, ] kVAs=[25, 25, ] taps=[1, 1, ] wdg=1 %R=0.658 RdcOhms=88.76091 wdg=2 %R=0.658 RdcOhms=0.01288627 %imag=0.5 %loadloss=1.316 %noloadloss=0.198 XHL=1.745
New "Transformer.step_05410_a2" phases=3 buses=[n312314.1.2.3, n312314_lo.1.2.3, ] conns=[wye, wye, ] kVs=[34.5, 13.2, ] kVAs=[2500, 2500, ] taps=[1, 1, ] wdg=1 %R=0.2684117 RdcOhms=0.362074 wdg=2 %R=0.2684117 RdcOhms=0.0530038 XHL=6.05 %Rs=[0.2684117, 0.2684117, ] %noloadloss=0.032 sub=no
New "Transformer.05410_g2100qm7300" phases=1 buses=[n300518.1, g2100qm7300_n300518_sec.1, ] conns=[wye, wye, ] kVs=[7.621024, 0.24, ] kVAs=[100, 100, ] taps=[1, 1, ] wdg=1 %R=0.67875 RdcOhms=3.350853 wdg=2 %R=0.67875 RdcOhms=0.00332316 %imag=0.5 %loadloss=1.3575 %noloadloss=0.131 XHL=3.29
New "Transformer.05410_g2100pn4000" phases=1 buses=[n300544.1, g2100pn4000_n300544_sec.1, ] conns=[wye, wye, ] kVs=[7.621024, 0.24, ] kVAs=[37.5, 37.5, ] taps=[1, 1, ] wdg=1 %R=0.53575 RdcOhms=7.053042 wdg=2 %R=0.53575 RdcOhms=0.006994752 %imag=0.5 %loadloss=1.0715 %noloadloss=0.2145 XHL=1.93
New "Transformer.05410_g2100pn6500" phases=1 buses=[n300562.1, g2100pn6500_n300562_sec.1, ] conns=[wye, wye, ] kVs=[7.621024, 0.24, ] kVAs=[37.5, 37.5, ] taps=[1, 1, ] wdg=1 %R=0.53575 RdcOhms=7.053042 wdg=2 %R=0.53575 RdcOhms=0.006994752 %imag=0.5 %loadloss=1.0715 %noloadloss=0.2145 XHL=1.93
New "Transformer.05410_g2100po8100" phases=1 buses=[n300593.1, g2100po8100_n300593_sec.1, ] conns=[wye, wye, ] kVs=[7.621024, 0.24, ] kVAs=[37.5, 37.5, ] taps=[1, 1, ] wdg=1 %R=0.53575 RdcOhms=7.053042 wdg=2 %R=0.53575 RdcOhms=0.006994752 %imag=0.5 %loadloss=1.0715 %noloadloss=0.2145 XHL=1.93
New "Transformer.05410_g2100qo0700" phases=1 buses=[n300609.1, g2100qo0700_n300609_sec.1, ] conns=[wye, wye, ] kVs=[7.621024, 0.24, ] kVAs=[50, 50, ] taps=[1, 1, ] wdg=1 %R=0.4385 RdcOhms=4.329574 wdg=2 %R=0.4385 RdcOhms=0.004293792 %imag=0.5 %loadloss=0.877 %noloadloss=0.181 XHL=2.025
New "Transformer.05410_g2101qa2300" phases=1 buses=[n300614.1, g2101qa2300_n300614_sec.1, ] conns=[wye, wye, ] kVs=[7.621024, 0.24, ] kVAs=[100, 100, ] taps=[1, 1, ] wdg=1 %R=0.67875 RdcOhms=3.350853 wdg=2 %R=0.67875 RdcOhms=0.00332316 %imag=0.5 %loadloss=1.3575 %noloadloss=0.131 XHL=3.29
New "Transformer.05410_g2100qp2300" phases=1 buses=[n300614.1, g2100qp2300_n300614_sec.1, ] conns=[wye, wye, ] kVs=[7.621024, 0.24, ] kVAs=[100, 100, ] taps=[1, 1, ] wdg=1 %R=0.67875 RdcOhms=3.350853 wdg=2 %R=0.67875 RdcOhms=0.00332316 %imag=0.5 %loadloss=1.3575 %noloadloss=0.131 XHL=3.29
New "Transformer.05410_g2101op2300" phases=1 buses=[n300646.1, g2101op2300_n300646_sec.1, ] conns=[wye, wye, ] kVs=[7.621024, 0.24, ] kVAs=[37.5, 37.5, ] taps=[1, 1, ] wdg=1 %R=0.53575 RdcOhms=7.053042 wdg=2 %R=0.53575 RdcOhms=0.006994752 %imag=0.5 %loadloss=1.0715 %noloadloss=0.2145 XHL=1.93
New "Transformer.05410_g2101ra0900" phases=1 buses=[n300678.1, g2101ra0900_n300678_sec.1, ] conns=[wye, wye, ] kVs=[7.621024, 0.24, ] kVAs=[75, 75, ] taps=[1, 1, ] wdg=1 %R=0.558625 RdcOhms=3.677093 wdg=2 %R=0.558625 RdcOhms=0.003646704 %imag=0.5 %loadloss=1.11725 %noloadloss=0.156 XHL=2.6575
New "Transformer.05410_g2101qb2900" phases=1 buses=[n300678.1, g2101qb2900_n300678_sec.1, ] conns=[wye, wye, ] kVs=[7.621024, 0.24, ] kVAs=[100, 100, ] taps=[1, 1, ] wdg=1 %R=0.67875 RdcOhms=3.350853 wdg=2 %R=0.67875 RdcOhms=0.00332316 %imag=0.5 %loadloss=1.3575 %noloadloss=0.131 XHL=3.29
New "Transformer.05410_g2101rb6300" phases=1 buses=[n312566.1, g2101rb6300_n312566_sec.1, ] conns=[wye, wye, ] kVs=[7.621024, 0.24, ] kVAs=[75, 75, ] taps=[1, 1, ] wdg=1 %R=0.558625 RdcOhms=3.677093 wdg=2 %R=0.558625 RdcOhms=0.003646704 %imag=0.5 %loadloss=1.11725 %noloadloss=0.156 XHL=2.6575
New "Transformer.05410_g2101sb1800" phases=1 buses=[n312602.1, g2101sb1800_n312602_sec.1, ] conns=[wye, wye, ] kVs=[7.621024, 0.24, ] kVAs=[75, 75, ] taps=[1, 1, ] wdg=1 %R=0.558625 RdcOhms=3.677093 wdg=2 %R=0.558625 RdcOhms=0.003646704 %imag=0.5 %loadloss=1.11725 %noloadloss=0.156 XHL=2.6575
New "Transformer.05410_g2101sc5300" phases=1 buses=[n312606.1, g2101sc5300_n312606_sec.1, ] conns=[wye, wye, ] kVs=[7.621024, 0.24, ] kVAs=[37.5, 37.5, ] taps=[1, 1, ] wdg=1 %R=0.53575 RdcOhms=7.053042 wdg=2 %R=0.53575 RdcOhms=0.006994752 %imag=0.5 %loadloss=1.0715 %noloadloss=0.2145 XHL=1.93
New "Transformer.05410_g2101rc6500" phases=1 buses=[n312606.1, g2101rc6500_n312606_sec.1, ] conns=[wye, wye, ] kVs=[7.621024, 0.24, ] kVAs=[50, 50, ] taps=[1, 1, ] wdg=1 %R=0.4385 RdcOhms=4.329574 wdg=2 %R=0.4385 RdcOhms=0.004293792 %imag=0.5 %loadloss=0.877 %noloadloss=0.181 XHL=2.025
New "Transformer.05410_g2101tc2601" phases=1 buses=[n312625.1, g2101tc2601_n312625_sec.1, ] conns=[wye, wye, ] kVs=[7.621024, 0.24, ] kVAs=[100, 100, ] taps=[1, 1, ] wdg=1 %R=0.67875 RdcOhms=3.350853 wdg=2 %R=0.67875 RdcOhms=0.00332316 %imag=0.5 %loadloss=1.3575 %noloadloss=0.131 XHL=3.29
New "Transformer.05410_g2101tc2600" phases=1 buses=[n312625.2, g2101tc2600_n312625_sec.2, ] conns=[wye, wye, ] kVs=[7.621024, 0.24, ] kVAs=[100, 100, ] taps=[1, 1, ] wdg=1 %R=0.67875 RdcOhms=3.350853 wdg=2 %R=0.67875 RdcOhms=0.00332316 %imag=0.5 %loadloss=1.3575 %noloadloss=0.131 XHL=3.29
New "Transformer.05410_g2101tb0900" phases=1 buses=[n312595.1, g2101tb0900_n312595_sec.1, ] conns=[wye, wye, ] kVs=[7.621024, 0.24, ] kVAs=[75, 75, ] taps=[1, 1, ] wdg=1 %R=0.558625 RdcOhms=3.677093 wdg=2 %R=0.558625 RdcOhms=0.003646704 %imag=0.5 %loadloss=1.11725 %noloadloss=0.156 XHL=2.6575
New "Transformer.05410_g2101ub2800" phases=1 buses=[n312558.2, g2101ub2800_n312558_sec.2, ] conns=[wye, wye, ] kVs=[7.621024, 0.24, ] kVAs=[75, 75, ] taps=[1, 1, ] wdg=1 %R=0.558625 RdcOhms=3.677093 wdg=2 %R=0.558625 RdcOhms=0.003646704 %imag=0.5 %loadloss=1.11725 %noloadloss=0.156 XHL=2.6575
New "Transformer.05410_g2101tb9300" phases=1 buses=[n312558.2, g2101tb9300_n312558_sec.2, ] conns=[wye, wye, ] kVs=[7.621024, 0.24, ] kVAs=[50, 50, ] taps=[1, 1, ] wdg=1 %R=0.4385 RdcOhms=4.329574 wdg=2 %R=0.4385 RdcOhms=0.004293792 %imag=0.5 %loadloss=0.877 %noloadloss=0.181 XHL=2.025
New "Transformer.05410_g2101ta3200" phases=1 buses=[n312486.2, g2101ta3200_n312486_sec.2, ] conns=[wye, wye, ] kVs=[7.621024, 0.24, ] kVAs=[100, 100, ] taps=[1, 1, ] wdg=1 %R=0.67875 RdcOhms=3.350853 wdg=2 %R=0.67875 RdcOhms=0.00332316 %imag=0.5 %loadloss=1.3575 %noloadloss=0.131 XHL=3.29
New "Transformer.05410_g2101sb2000" phases=1 buses=[n312551.1, g2101sb2000_n312551_sec.1, ] conns=[wye, wye, ] kVs=[7.621024, 0.24, ] kVAs=[75, 75, ] taps=[1, 1, ] wdg=1 %R=0.558625 RdcOhms=3.677093 wdg=2 %R=0.558625 RdcOhms=0.003646704 %imag=0.5 %loadloss=1.11725 %noloadloss=0.156 XHL=2.6575
New "Transformer.05410_g2100to1000" phases=1 buses=[n312424.2, g2100to1000_n312424_sec.2, ] conns=[wye, wye, ] kVs=[7.621024, 0.24, ] kVAs=[100, 100, ] taps=[1, 1, ] wdg=1 %R=0.67875 RdcOhms=3.350853 wdg=2 %R=0.67875 RdcOhms=0.00332316 %imag=0.5 %loadloss=1.3575 %noloadloss=0.131 XHL=3.29
New "Transformer.05410_g2100sm8900" phases=1 buses=[n312424.2, g2100sm8900_n312424_sec.2, ] conns=[wye, wye, ] kVs=[7.621024, 0.24, ] kVAs=[75, 75, ] taps=[1, 1, ] wdg=1 %R=0.558625 RdcOhms=3.677093 wdg=2 %R=0.558625 RdcOhms=0.003646704 %imag=0.5 %loadloss=1.11725 %noloadloss=0.156 XHL=2.6575
New "Transformer.05410_g2100sl6900" phases=1 buses=[n312340.2, g2100sl6900_n312340_sec.2, ] conns=[wye, wye, ] kVs=[7.621024, 0.24, ] kVAs=[37.5, 37.5, ] taps=[1, 1, ] wdg=1 %R=0.53575 RdcOhms=7.053042 wdg=2 %R=0.53575 RdcOhms=0.006994752 %imag=0.5 %loadloss=1.0715 %noloadloss=0.2145 XHL=1.93
New "Transformer.05410_g2100rm5200" phases=1 buses=[n312343.3, g2100rm5200_n312343_sec.3, ] conns=[wye, wye, ] kVs=[7.621024, 0.24, ] kVAs=[100, 100, ] taps=[1, 1, ] wdg=1 %R=0.67875 RdcOhms=3.350853 wdg=2 %R=0.67875 RdcOhms=0.00332316 %imag=0.5 %loadloss=1.3575 %noloadloss=0.131 XHL=3.29
New "Transformer.step_05410_a1" phases=3 buses=[n312290.1.2.3, n312290_lo.1.2.3, ] conns=[wye, wye, ] kVs=[34.5, 13.2, ] kVAs=[2500, 2500, ] taps=[1, 1, ] wdg=1 %R=0.2684117 RdcOhms=0.362074 wdg=2 %R=0.2684117 RdcOhms=0.0530038 XHL=6.05 %Rs=[0.2684117, 0.2684117, ] %noloadloss=0.032 sub=no
New "Transformer.05410_g2100rl8500" phases=1 buses=[n312282.2, g2100rl8500_n312282_sec.2, ] conns=[wye, wye, ] kVs=[19.91858, 0.24, ] kVAs=[25, 25, ] taps=[1, 1, ] wdg=1 %R=0.658 RdcOhms=88.76091 wdg=2 %R=0.658 RdcOhms=0.01288627 %imag=0.5 %loadloss=1.316 %noloadloss=0.198 XHL=1.745
New "Transformer.05410_g2100sm1100" phases=1 buses=[n312351.3, g2100sm1100_n312351_sec.3, ] conns=[wye, wye, ] kVs=[19.91858, 0.24, ] kVAs=[25, 25, ] taps=[1, 1, ] wdg=1 %R=0.658 RdcOhms=88.76091 wdg=2 %R=0.658 RdcOhms=0.01288627 %imag=0.5 %loadloss=1.316 %noloadloss=0.198 XHL=1.745
New "Transformer.05410_g2100sn7200" phases=3 buses=[n312429.1.2.3, g2100sn7200_n312429_sec.1.2.3, ] conns=[wye, wye, ] kVs=[34.5, 0.48, ] kVAs=[750, 750, ] taps=[1, 1, ] wdg=1 %R=0.353 RdcOhms=1.587264 wdg=2 %R=0.353 RdcOhms=0.0003072512 %imag=0.5 %loadloss=0.706 %noloadloss=0.1492 XHL=5.27
New "Transformer.05410_g2100tm3900" phases=3 buses=[n312419.1.2.3, g2100tm3900_n312419_sec.1.2.3, ] conns=[wye, wye, ] kVs=[34.5, 0.48, ] kVAs=[500, 500, ] taps=[1, 1, ] wdg=1 %R=0.3866 RdcOhms=2.60752 wdg=2 %R=0.3866 RdcOhms=0.000504745 %imag=0.5 %loadloss=0.7732 %noloadloss=0.1563 XHL=3.675
New "Transformer.05410_g2100tm2800" phases=1 buses=[n312419.1, g2100tm2800_n312419_sec_a.1, ] conns=[wye, wye, ] kVs=[19.91858, 0.24, ] kVAs=[167, 167, ] taps=[1, 1, ] wdg=1 %R=0.4167665 RdcOhms=8.416125 wdg=2 %R=0.4167665 RdcOhms=0.001221849 %imag=0.5 %loadloss=0.8335329 %noloadloss=0.161976 XHL=2.355
New "Transformer.05410_g2100to3200" phases=3 buses=[n312445.1.2.3, g2100to3200_n312445_sec.1.2.3, ] conns=[wye, wye, ] kVs=[34.5, 0.48, ] kVAs=[500, 500, ] taps=[1, 1, ] wdg=1 %R=0.3866 RdcOhms=2.60752 wdg=2 %R=0.3866 RdcOhms=0.000504745 %imag=0.5 %loadloss=0.7732 %noloadloss=0.1563 XHL=3.675
New "Transformer.05410_g2101sb6500" phases=1 buses=[n312568.1, g2101sb6500_n312568_sec.1, ] conns=[wye, wye, ] kVs=[7.621024, 0.24, ] kVAs=[75, 75, ] taps=[1, 1, ] wdg=1 %R=0.558625 RdcOhms=3.677093 wdg=2 %R=0.558625 RdcOhms=0.003646704 %imag=0.5 %loadloss=1.11725 %noloadloss=0.156 XHL=2.6575
New "Transformer.05410_g2101sa6800" phases=1 buses=[n312536.2, g2101sa6800_n312536_sec.2, ] conns=[wye, wye, ] kVs=[7.621024, 0.24, ] kVAs=[100, 100, ] taps=[1, 1, ] wdg=1 %R=0.67875 RdcOhms=3.350853 wdg=2 %R=0.67875 RdcOhms=0.00332316 %imag=0.5 %loadloss=1.3575 %noloadloss=0.131 XHL=3.29
New "Transformer.05410_g2100sp2100" phases=1 buses=[n312536.2, g2100sp2100_n312536_sec.2, ] conns=[wye, wye, ] kVs=[7.621024, 0.24, ] kVAs=[100, 100, ] taps=[1, 1, ] wdg=1 %R=0.67875 RdcOhms=3.350853 wdg=2 %R=0.67875 RdcOhms=0.00332316 %imag=0.5 %loadloss=1.3575 %noloadloss=0.131 XHL=3.29
New "Transformer.05410_g2101ra5400" phases=1 buses=[n300653.2, g2101ra5400_n300653_sec.2, ] conns=[wye, wye, ] kVs=[7.621024, 0.24, ] kVAs=[37.5, 37.5, ] taps=[1, 1, ] wdg=1 %R=0.53575 RdcOhms=7.053042 wdg=2 %R=0.53575 RdcOhms=0.006994752 %imag=0.5 %loadloss=1.0715 %noloadloss=0.2145 XHL=1.93
New "Transformer.05410_g2100qp9600" phases=1 buses=[n300587.2, g2100qp9600_n300587_sec.2, ] conns=[wye, wye, ] kVs=[7.621024, 0.24, ] kVAs=[100, 100, ] taps=[1, 1, ] wdg=1 %R=0.67875 RdcOhms=3.350853 wdg=2 %R=0.67875 RdcOhms=0.00332316 %imag=0.5 %loadloss=1.3575 %noloadloss=0.131 XHL=3.29
New "Transformer.05410_g2100qo8900" phases=1 buses=[n300587.2, g2100qo8900_n300587_sec.2, ] conns=[wye, wye, ] kVs=[7.621024, 0.24, ] kVAs=[100, 100, ] taps=[1, 1, ] wdg=1 %R=0.67875 RdcOhms=3.350853 wdg=2 %R=0.67875 RdcOhms=0.00332316 %imag=0.5 %loadloss=1.3575 %noloadloss=0.131 XHL=3.29
New "Transformer.05410_g2100qo6100" phases=1 buses=[n300566.2, g2100qo6100_n300566_sec.2, ] conns=[wye, wye, ] kVs=[7.621024, 0.24, ] kVAs=[100, 100, ] taps=[1, 1, ] wdg=1 %R=0.67875 RdcOhms=3.350853 wdg=2 %R=0.67875 RdcOhms=0.00332316 %imag=0.5 %loadloss=1.3575 %noloadloss=0.131 XHL=3.29
New "Transformer.05410_g2100qn1500" phases=1 buses=[n300555.2, g2100qn1500_n300555_sec.2, ] conns=[wye, wye, ] kVs=[7.621024, 0.24, ] kVAs=[75, 75, ] taps=[1, 1, ] wdg=1 %R=0.558625 RdcOhms=3.677093 wdg=2 %R=0.558625 RdcOhms=0.003646704 %imag=0.5 %loadloss=1.11725 %noloadloss=0.156 XHL=2.6575
New "Transformer.05410_g2100qm2700" phases=1 buses=[n300529.2, g2100qm2700_n300529_sec.2, ] conns=[wye, wye, ] kVs=[7.621024, 0.24, ] kVAs=[100, 100, ] taps=[1, 1, ] wdg=1 %R=0.67875 RdcOhms=3.350853 wdg=2 %R=0.67875 RdcOhms=0.00332316 %imag=0.5 %loadloss=1.3575 %noloadloss=0.131 XHL=3.29
New "Transformer.05410_g2100qm7500" phases=1 buses=[n300522.3, g2100qm7500_n300522_sec.3, ] conns=[wye, wye, ] kVs=[7.621024, 0.24, ] kVAs=[100, 100, ] taps=[1, 1, ] wdg=1 %R=0.67875 RdcOhms=3.350853 wdg=2 %R=0.67875 RdcOhms=0.00332316 %imag=0.5 %loadloss=1.3575 %noloadloss=0.131 XHL=3.29
New "Transformer.05410_g2100rn0300" phases=1 buses=[n300550.3, g2100rn0300_n300550_sec.3, ] conns=[wye, wye, ] kVs=[7.621024, 0.24, ] kVAs=[75, 75, ] taps=[1, 1, ] wdg=1 %R=0.558625 RdcOhms=3.677093 wdg=2 %R=0.558625 RdcOhms=0.003646704 %imag=0.5 %loadloss=1.11725 %noloadloss=0.156 XHL=2.6575
New "Transformer.05410_g2100rn1800" phases=1 buses=[n300557.3, g2100rn1800_n300557_sec.3, ] conns=[wye, wye, ] kVs=[7.621024, 0.24, ] kVAs=[75, 75, ] taps=[1, 1, ] wdg=1 %R=0.558625 RdcOhms=3.677093 wdg=2 %R=0.558625 RdcOhms=0.003646704 %imag=0.5 %loadloss=1.11725 %noloadloss=0.156 XHL=2.6575