New "Transformer.reg2a" phases=1 windings=2 buses=[9.1, 9r.1, ] conns=[wye, wye, ] kVs=[2.402, 2.402, ] kVAs=[2000, 2000, ] XHL=0.01 %loadloss=1E-005 ppm_antifloat=0
New "Transformer.reg1a" phases=3 windings=2 buses=[150, 150r, ] conns=[wye, wye, ] kVs=[4.16, 4.16, ] kVAs=[5000, 5000, ] XHL=0.001 %loadloss=1E-005 ppm_antifloat=0
