New "Line.t2dswitch" phases=3 bus1=b52d bus2=sourcebus Switch=True
New "Reactor.mdv_sub_1_hsb" bus1=SourceBus bus2=MDV_SUB_1_HSB R=0 X=29.035298 normamps=1000 emergamps=2000
New "Line.mdv201_connector" bus1=_mdv_sub_1_lsb bus2=mdv201 length=0.001 r1=0.001 r0=0.001 x1=0.01 x0=0.01 C1=0 C0=0 units=km enabled=true phases=3
New "Line.mdv201_hn_2_793_abc1023346_sw" bus1=mdv201 bus2=mdv201_hn_2_793_abc1023346_int length=0.001 Switch=True units=km enabled=true phases=3
New "Line.mdv201_hn_2_793_abc1023346" bus1=mdv201_hn_2_793_abc1023346_int bus2=1023346 length=0.04572 geometry=3PH_HORIZ_LG_1C-AL_556_19STRAL_556_19STRAL_556_19STRACSR_1/0_6/1 Seasons=1 Ratings=[0,] normamps=619 emergamps=743 units=km enabled=true phases=3
New "Line.sw-hn_2_793_sw" bus1=1023346 bus2=mdv201_796usd_int length=0.001 Switch=True units=km enabled=true phases=3
New "Line.mdv201_796usd" bus1=mdv201_796usd_int bus2=796 length=0.001524 geometry=3PH_HORIZ_LG_1C-BUSBARBUSBARBUSBARBUSBAR Seasons=1 Ratings=[0,] normamps=2000 emergamps=2400 units=km enabled=true phases=3
New "Line.mdv202_osw_796" bus1=mdv202_osw_796_int bus2=796 length=0.001524 geometry=3PH_HORIZ_LG_1C-BUSBARBUSBARBUSBARBUSBAR Seasons=1 Ratings=[0,] normamps=2000 emergamps=2400 units=km enabled=true phases=3
New "Line.mdv201_hn_2_794_abc791" bus1=796 bus2=791 length=0.0597408 geometry=3PH_HORIZ_LG_1C-AL_556_19STRAL_556_19STRAL_556_19STRACSR_1/0_6/1 Seasons=1 Ratings=[0,] normamps=619 emergamps=743 units=km enabled=true phases=3
New "Line.mdv201_hn_2_795_abc788" bus1=791 bus2=788 length=0.0667512 geometry=3PH_HORIZ_LG_1C-AL_556_19STRAL_556_19STRAL_556_19STRACSR_1/0_6/1 Seasons=1 Ratings=[0,] normamps=619 emergamps=743 units=km enabled=true phases=3
New "Line.mdv201_hn_2_796_abc782" bus1=788 bus2=782 length=0.0679704 geometry=3PH_VERT_1C-AL_556_19STRAL_556_19STRAL_556_19STRACSR_1/0_6/1 Seasons=1 Ratings=[0,] normamps=619 emergamps=743 units=km enabled=true phases=3
New "Line.mdv201_hn_2_808_abc783" bus1=782 bus2=783 length=0.0573024 geometry=3PH_VERT_1C-AL_556_19STRAL_556_19STRAL_556_19STRACSR_1/0_6/1 Seasons=1 Ratings=[0,] normamps=619 emergamps=743 units=km enabled=true phases=3
New "Line.mdv201_hn_2_809_abc861" bus1=783 bus2=861 length=0.0585216 geometry=3PH_VERT_1C-AL_556_19STRAL_556_19STRAL_556_19STRACSR_1/0_6/1 Seasons=1 Ratings=[0,] normamps=619 emergamps=743 units=km enabled=true phases=3
New "Line.mdv201_hn_2_810_abc63685" bus1=861 bus2=63685 length=0.0734568 geometry=3PH_VERT_1C-AL_556_19STRAL_556_19STRAL_556_19STRACSR_1/0_6/1 Seasons=1 Ratings=[0,] normamps=619 emergamps=743 units=km enabled=true phases=3
New "Line.mdv201_hn_2_811_abc63638" bus1=63685 bus2=63638 length=0.0938784 geometry=3PH_HORIZ_LG_1C-AL_556_19STRAL_556_19STRAL_556_19STRACSR_1/0_6/1 Seasons=1 Ratings=[0,] normamps=619 emergamps=743 units=km enabled=true phases=3
New "Line.mdv201_hn_2_436_abc63639" bus1=63638 bus2=63639 length=0.0423672 geometry=3PH_HORIZ_LG_1C-AL_556_19STRAL_556_19STRAL_556_19STRACSR_1/0_6/1 Seasons=1 Ratings=[0,] normamps=619 emergamps=743 units=km enabled=true phases=3
New "Line.s_mdv201_hn_2_436_abc63639-1b0" bus1=x_63639.2 bus2=x_63639_1.2 linecode=defaultSecondary Seasons=1 Ratings=[400,] normamps=400 emergamps=600 phases=1 length=100 units=ft
New "Line.mdv201_hn_2_435_abc63643" bus1=63639 bus2=63643 length=0.0606552 geometry=3PH_HORIZ_LG_1C-AL_556_19STRAL_556_19STRAL_556_19STRACSR_1/0_6/1 Seasons=1 Ratings=[0,] normamps=619 emergamps=743 units=km enabled=true phases=3
New "Line.s_mdv201_hn_2_435_abc63643-1b1" bus1=x_63643.2 bus2=x_63643_2.2 linecode=defaultSecondary Seasons=1 Ratings=[400,] normamps=400 emergamps=600 phases=1 length=100 units=ft
New "Line.s_mdv201_hn_2_435_abc63643-1b0" bus1=x_63643.2 bus2=x_63643_1.2 linecode=defaultSecondary Seasons=1 Ratings=[400,] normamps=400 emergamps=600 phases=1 length=100 units=ft
New "Line.mdv201_hn_2_434_abc63645" bus1=63643 bus2=63645 length=0.0612648 geometry=3PH_HORIZ_LG_1C-AL_556_19STRAL_556_19STRAL_556_19STRACSR_1/0_6/1 Seasons=1 Ratings=[0,] normamps=619 emergamps=743 units=km enabled=true phases=3
New "Line.s_mdv201_hn_2_434_abc63645-1b1" bus1=x_63645.2 bus2=x_63645_2.2 linecode=defaultSecondary Seasons=1 Ratings=[400,] normamps=400 emergamps=600 phases=1 length=100 units=ft
New "Line.s_mdv201_hn_2_434_abc63645-1b0" bus1=x_63645.2 bus2=x_63645_1.2 linecode=defaultSecondary Seasons=1 Ratings=[400,] normamps=400 emergamps=600 phases=1 length=100 units=ft
New "Line.mdv201_hn_2_408_abc63655" bus1=63645 bus2=63655 length=0.06096 geometry=3PH_HORIZ_LG_1C-AL_556_19STRAL_556_19STRAL_556_19STRACSR_1/0_6/1 Seasons=1 Ratings=[0,] normamps=619 emergamps=743 units=km enabled=true phases=3
New "Line.s_mdv201_hn_2_408_abc63655-1b1" bus1=x_63655.2 bus2=x_63655_2.2 linecode=defaultSecondary Seasons=1 Ratings=[400,] normamps=400 emergamps=600 phases=1 length=100 units=ft
New "Line.s_mdv201_hn_2_408_abc63655-1b0" bus1=x_63655.2 bus2=x_63655_1.2 linecode=defaultSecondary Seasons=1 Ratings=[400,] normamps=400 emergamps=600 phases=1 length=100 units=ft
New "Line.mdv201_hn_2_395_abc63657" bus1=63655 bus2=63657 length=0.0691896 geometry=3PH_VERT_1C-AL_556_19STRAL_556_19STRAL_556_19STRACSR_1/0_6/1 Seasons=1 Ratings=[0,] normamps=619 emergamps=743 units=km enabled=true phases=3
New "Line.s_mdv201_hn_2_395_abc63657-1b0" bus1=x_63657.2 bus2=x_63657_1.2 linecode=defaultSecondary Seasons=1 Ratings=[400,] normamps=400 emergamps=600 phases=1 length=100 units=ft
New "Line.mdv201_hn_2_812_abc63656" bus1=63657 bus2=63656 length=0.047244 geometry=3PH_VERT_1C-AL_4/0_7STRAL_4/0_7STRAL_4/0_7STRACSR_1/0_6/1 Seasons=1 Ratings=[0,] normamps=338 emergamps=406 units=km enabled=true phases=3
New "Line.sw-hn_2_812_sw" bus1=63656 bus2=mdv201_107107usd_int length=0.001 Switch=True units=km enabled=true phases=3
New "Line.mdv201_107107usd" bus1=mdv201_107107usd_int bus2=107107 length=0.001524 geometry=3PH_HORIZ_LG_1C-BUSBARBUSBARBUSBARBUSBAR Seasons=1 Ratings=[0,] normamps=2000 emergamps=2400 units=km enabled=true phases=3
New "Line.mdv201_hn_2_813_abc63654" bus1=107107 bus2=63654 length=0.100584 geometry=3PH_HORIZ_LG_1C-AL_4/0_7STRAL_4/0_7STRAL_4/0_7STRACSR_1/0_6/1 Seasons=1 Ratings=[0,] normamps=338 emergamps=406 units=km enabled=true phases=3
New "Line.mdv201_hn_2_814_abc14891" bus1=63654 bus2=14891 length=0.10668 geometry=3PH_HORIZ_LG_1C-AL_4/0_7STRAL_4/0_7STRAL_4/0_7STRACSR_1/0_6/1 Seasons=1 Ratings=[0,] normamps=338 emergamps=406 units=km enabled=true phases=3
New "Line.mdv201_hn_2_815_abc14892" bus1=14891 bus2=14892 length=0.0917448 geometry=3PH_HORIZ_LG_1C-AL_4/0_7STRAL_4/0_7STRAL_4/0_7STRACSR_1/0_6/1 Seasons=1 Ratings=[0,] normamps=338 emergamps=406 units=km enabled=true phases=3
New "Line.mdv201_hn_2_828_abc28247" bus1=14892 bus2=28247 length=0.0908304 geometry=3PH_HORIZ_LG_1C-AL_4/0_7STRAL_4/0_7STRAL_4/0_7STRACSR_1/0_6/1 Seasons=1 Ratings=[0,] normamps=338 emergamps=406 units=km enabled=true phases=3
New "Line.mdv201_hn_2_823_abc28244" bus1=28247 bus2=28244 length=0.0478536 geometry=3PH_VERT_1C-AL_4/0_7STRAL_4/0_7STRAL_4/0_7STRACSR_1/0_6/1 Seasons=1 Ratings=[0,] normamps=338 emergamps=406 units=km enabled=true phases=3
New "Line.mdv201_hn_2_283_abc14857" bus1=28244 bus2=14857 length=0.0307848 geometry=3PH_VERT_1C-AL_4/0_7STRAL_4/0_7STRAL_4/0_7STRACSR_1/0_6/1 Seasons=1 Ratings=[0,] normamps=338 emergamps=406 units=km enabled=true phases=3
New "Line.s_mdv201_hn_2_283_abc14857-1b1" bus1=x_14857.2 bus2=x_14857_2.2 linecode=defaultSecondary Seasons=1 Ratings=[400,] normamps=400 emergamps=600 phases=1 length=100 units=ft
New "Line.s_mdv201_hn_2_283_abc14857-1b0" bus1=x_14857.2 bus2=x_14857_1.2 linecode=defaultSecondary Seasons=1 Ratings=[400,] normamps=400 emergamps=600 phases=1 length=100 units=ft
New "Line.mdv201_hn_2_963_a14858" bus1=14857.1 bus2=14858.1 length=0.019812 geometry=1PH-AL_#2_7STRNONENONEACSR_1/0_6/1 Seasons=1 Ratings=[0,] normamps=163 emergamps=196 units=km enabled=true phases=1
New "Line.mdv201_14869fuse" bus1=14858.1 bus2=14869.1 length=0.001524 geometry=1PH-BUSBARNONENONEBUSBAR Seasons=1 Ratings=[0,] normamps=2000 emergamps=2400 units=km enabled=true phases=1
New "Line.mdv201_hn_2_964_a14870" bus1=14869.1 bus2=14870.1 length=0.0804672 geometry=1PH-AL_#2_7STRNONENONEACSR_1/0_6/1 Seasons=1 Ratings=[0,] normamps=163 emergamps=196 units=km enabled=true phases=1
New "Line.s_mdv201_hn_2_964_a14870-1a3" bus1=x_14870.1 bus2=x_14870_4.1 linecode=defaultSecondary Seasons=1 Ratings=[400,] normamps=400 emergamps=600 phases=1 length=100 units=ft
New "Line.s_mdv201_hn_2_964_a14870-1a2" bus1=x_14870.1 bus2=x_14870_3.1 linecode=defaultSecondary Seasons=1 Ratings=[400,] normamps=400 emergamps=600 phases=1 length=100 units=ft
New "Line.s_mdv201_hn_2_964_a14870-1a1" bus1=x_14870.1 bus2=x_14870_2.1 linecode=defaultSecondary Seasons=1 Ratings=[400,] normamps=400 emergamps=600 phases=1 length=100 units=ft
New "Line.s_mdv201_hn_2_964_a14870-1a0" bus1=x_14870.1 bus2=x_14870_1.1 linecode=defaultSecondary Seasons=1 Ratings=[400,] normamps=400 emergamps=600 phases=1 length=100 units=ft
New "Line.mdv201_hn_2_965_a63726" bus1=14870.1 bus2=63726.1 length=0.0688848 geometry=1PH-AL_#2_7STRNONENONEACSR_1/0_6/1 Seasons=1 Ratings=[0,] normamps=163 emergamps=196 units=km enabled=true phases=1
New "Line.mdv201_hn_2_966_a63718" bus1=63726.1 bus2=63718.1 length=0.064008 geometry=1PH-AL_#2_7STRNONENONEACSR_1/0_6/1 Seasons=1 Ratings=[0,] normamps=163 emergamps=196 units=km enabled=true phases=1
New "Line.s_mdv201_hn_2_966_a63718-1a3" bus1=x_63718.1 bus2=x_63718_4.1 linecode=defaultSecondary Seasons=1 Ratings=[400,] normamps=400 emergamps=600 phases=1 length=100 units=ft
New "Line.s_mdv201_hn_2_966_a63718-1a2" bus1=x_63718.1 bus2=x_63718_3.1 linecode=defaultSecondary Seasons=1 Ratings=[400,] normamps=400 emergamps=600 phases=1 length=100 units=ft
New "Line.s_mdv201_hn_2_966_a63718-1a1" bus1=x_63718.1 bus2=x_63718_2.1 linecode=defaultSecondary Seasons=1 Ratings=[400,] normamps=400 emergamps=600 phases=1 length=100 units=ft
New "Line.s_mdv201_hn_2_966_a63718-1a0" bus1=x_63718.1 bus2=x_63718_1.1 linecode=defaultSecondary Seasons=1 Ratings=[400,] normamps=400 emergamps=600 phases=1 length=100 units=ft
New "Line.mdv201_hn_2_967_a63715" bus1=63718.1 bus2=63715.1 length=0.0560832 geometry=1PH-AL_#2_7STRNONENONEACSR_1/0_6/1 Seasons=1 Ratings=[0,] normamps=163 emergamps=196 units=km enabled=true phases=1
New "Line.s_mdv201_hn_2_967_a63715-1a2" bus1=x_63715.1 bus2=x_63715_3.1 linecode=defaultSecondary Seasons=1 Ratings=[400,] normamps=400 emergamps=600 phases=1 length=100 units=ft
New "Line.s_mdv201_hn_2_967_a63715-1a1" bus1=x_63715.1 bus2=x_63715_2.1 linecode=defaultSecondary Seasons=1 Ratings=[400,] normamps=400 emergamps=600 phases=1 length=100 units=ft
New "Line.s_mdv201_hn_2_967_a63715-1a0" bus1=x_63715.1 bus2=x_63715_1.1 linecode=defaultSecondary Seasons=1 Ratings=[400,] normamps=400 emergamps=600 phases=1 length=100 units=ft
New "Line.mdv201_hn_2_968_a63713" bus1=63715.1 bus2=63713.1 length=0.0551688 geometry=1PH-AL_#2_7STRNONENONEACSR_1/0_6/1 Seasons=1 Ratings=[0,] normamps=163 emergamps=196 units=km enabled=true phases=1
New "Line.s_mdv201_hn_2_968_a63713-1a3" bus1=x_63713.1 bus2=x_63713_4.1 linecode=defaultSecondary Seasons=1 Ratings=[400,] normamps=400 emergamps=600 phases=1 length=100 units=ft
New "Line.s_mdv201_hn_2_968_a63713-1a2" bus1=x_63713.1 bus2=x_63713_3.1 linecode=defaultSecondary Seasons=1 Ratings=[400,] normamps=400 emergamps=600 phases=1 length=100 units=ft
New "Line.s_mdv201_hn_2_968_a63713-1a1" bus1=x_63713.1 bus2=x_63713_2.1 linecode=defaultSecondary Seasons=1 Ratings=[400,] normamps=400 emergamps=600 phases=1 length=100 units=ft
New "Line.s_mdv201_hn_2_968_a63713-1a0" bus1=x_63713.1 bus2=x_63713_1.1 linecode=defaultSecondary Seasons=1 Ratings=[400,] normamps=400 emergamps=600 phases=1 length=100 units=ft
New "Line.mdv201_hn_2_969_a63709" bus1=63713.1 bus2=63709.1 length=0.0536448 geometry=1PH-AL_#2_7STRNONENONEACSR_1/0_6/1 Seasons=1 Ratings=[0,] normamps=163 emergamps=196 units=km enabled=true phases=1
New "Line.s_mdv201_hn_2_969_a63709-1a1" bus1=x_63709.1 bus2=x_63709_2.1 linecode=defaultSecondary Seasons=1 Ratings=[400,] normamps=400 emergamps=600 phases=1 length=100 units=ft
New "Line.s_mdv201_hn_2_969_a63709-1a0" bus1=x_63709.1 bus2=x_63709_1.1 linecode=defaultSecondary Seasons=1 Ratings=[400,] normamps=400 emergamps=600 phases=1 length=100 units=ft
New "Line.mdv201_hn_2_970_a63710" bus1=63709.1 bus2=63710.1 length=0.04572 geometry=1PH-AL_#2_7STRNONENONEACSR_1/0_6/1 Seasons=1 Ratings=[0,] normamps=163 emergamps=196 units=km enabled=true phases=1
New "Line.s_mdv201_hn_2_970_a63710-1a3" bus1=x_63710.1 bus2=x_63710_4.1 linecode=defaultSecondary Seasons=1 Ratings=[400,] normamps=400 emergamps=600 phases=1 length=100 units=ft
New "Line.s_mdv201_hn_2_970_a63710-1a2" bus1=x_63710.1 bus2=x_63710_3.1 linecode=defaultSecondary Seasons=1 Ratings=[400,] normamps=400 emergamps=600 phases=1 length=100 units=ft
New "Line.s_mdv201_hn_2_970_a63710-1a1" bus1=x_63710.1 bus2=x_63710_2.1 linecode=defaultSecondary Seasons=1 Ratings=[400,] normamps=400 emergamps=600 phases=1 length=100 units=ft
New "Line.s_mdv201_hn_2_970_a63710-1a0" bus1=x_63710.1 bus2=x_63710_1.1 linecode=defaultSecondary Seasons=1 Ratings=[400,] normamps=400 emergamps=600 phases=1 length=100 units=ft
New "Line.mdv201_hn_2_094_abc51012" bus1=14857 bus2=51012 length=0.0515112 geometry=3PH_HORIZ_LG_1C-AL_4/0_7STRAL_4/0_7STRAL_4/0_7STRACSR_1/0_6/1 Seasons=1 Ratings=[0,] normamps=338 emergamps=406 units=km enabled=true phases=3
New "Line.s_mdv201_hn_2_094_abc51012-1b0" bus1=x_51012.2 bus2=x_51012_1.2 linecode=defaultSecondary Seasons=1 Ratings=[400,] normamps=400 emergamps=600 phases=1 length=100 units=ft
New "Line.mdv201_hn_2_093_abc63714" bus1=51012 bus2=63714 length=0.079248 geometry=3PH_HORIZ_LG_1C-AL_4/0_7STRAL_4/0_7STRAL_4/0_7STRACSR_1/0_6/1 Seasons=1 Ratings=[0,] normamps=338 emergamps=406 units=km enabled=true phases=3
New "Line.s_mdv201_hn_2_093_abc63714-1b1" bus1=x_63714.2 bus2=x_63714_2.2 linecode=defaultSecondary Seasons=1 Ratings=[400,] normamps=400 emergamps=600 phases=1 length=100 units=ft
New "Line.s_mdv201_hn_2_093_abc63714-1b0" bus1=x_63714.2 bus2=x_63714_1.2 linecode=defaultSecondary Seasons=1 Ratings=[400,] normamps=400 emergamps=600 phases=1 length=100 units=ft
New "Line.mdv201_hn_2_092_abc63711" bus1=63714 bus2=63711 length=0.105156 geometry=3PH_HORIZ_LG_1C-AL_4/0_7STRAL_4/0_7STRAL_4/0_7STRACSR_1/0_6/1 Seasons=1 Ratings=[0,] normamps=338 emergamps=406 units=km enabled=true phases=3
New "Line.s_mdv201_hn_2_092_abc63711-1b1" bus1=x_63711.2 bus2=x_63711_2.2 linecode=defaultSecondary Seasons=1 Ratings=[400,] normamps=400 emergamps=600 phases=1 length=100 units=ft
New "Line.s_mdv201_hn_2_092_abc63711-1b0" bus1=x_63711.2 bus2=x_63711_1.2 linecode=defaultSecondary Seasons=1 Ratings=[400,] normamps=400 emergamps=600 phases=1 length=100 units=ft
New "Line.mdv201_hn_2_247_abc44582" bus1=63711 bus2=44582 length=0.0432816 geometry=3PH_HORIZ_LG_1C-AL_4/0_7STRAL_4/0_7STRAL_4/0_7STRACSR_1/0_6/1 Seasons=1 Ratings=[0,] normamps=338 emergamps=406 units=km enabled=true phases=3
New "Line.s_mdv201_hn_2_247_abc44582-1b1" bus1=x_44582.2 bus2=x_44582_2.2 linecode=defaultSecondary Seasons=1 Ratings=[400,] normamps=400 emergamps=600 phases=1 length=100 units=ft
New "Line.s_mdv201_hn_2_247_abc44582-1b0" bus1=x_44582.2 bus2=x_44582_1.2 linecode=defaultSecondary Seasons=1 Ratings=[400,] normamps=400 emergamps=600 phases=1 length=100 units=ft
New "Line.mdv201_hn_2_217_abc8160" bus1=44582 bus2=8160 length=0.025908 geometry=3PH_HORIZ_LG_1C-AL_4/0_7STRAL_4/0_7STRAL_4/0_7STRACSR_1/0_6/1 Seasons=1 Ratings=[0,] normamps=338 emergamps=406 units=km enabled=true phases=3
New "Line.mdv201_104356fuse" bus1=8160.3 bus2=104356.3 length=0.001524 geometry=1PH-NONENONEBUSBARBUSBAR Seasons=1 Ratings=[0,] normamps=2000 emergamps=2400 units=km enabled=true phases=1
New "Line.mdv201_hn_2_216_c44581" bus1=104356.3 bus2=44581.3 length=0.0969264 geometry=1PH-NONENONEAL_#2_7STRACSR_1/0_6/1 Seasons=1 Ratings=[0,] normamps=163 emergamps=196 units=km enabled=true phases=1
New "Line.s_mdv201_hn_2_216_c44581-1c2" bus1=x_44581.3 bus2=x_44581_3.3 linecode=defaultSecondary Seasons=1 Ratings=[400,] normamps=400 emergamps=600 phases=1 length=100 units=ft
New "Line.s_mdv201_hn_2_216_c44581-1c1" bus1=x_44581.3 bus2=x_44581_2.3 linecode=defaultSecondary Seasons=1 Ratings=[400,] normamps=400 emergamps=600 phases=1 length=100 units=ft
New "Line.s_mdv201_hn_2_216_c44581-1c0" bus1=x_44581.3 bus2=x_44581_1.3 linecode=defaultSecondary Seasons=1 Ratings=[400,] normamps=400 emergamps=600 phases=1 length=100 units=ft
New "Line.mdv201_hn_2_287_c63712" bus1=44581.3 bus2=63712.3 length=0.0972312 geometry=1PH-NONENONEAL_#2_7STRACSR_1/0_6/1 Seasons=1 Ratings=[0,] normamps=163 emergamps=196 units=km enabled=true phases=1
New "Line.mdv201_hn_21015_c63716" bus1=63712.3 bus2=63716.3 length=0.0414528 geometry=1PH-NONENONEAL_#2_7STRACSR_1/0_6/1 Seasons=1 Ratings=[0,] normamps=163 emergamps=196 units=km enabled=true phases=1
New "Line.mdv201_hn_21093_c1012641" bus1=63716.3 bus2=1012641.3 length=0.0146304 geometry=1PH-NONENONEACSR_1/0_6/1ACSR_1/0_6/1 Seasons=1 Ratings=[0,] normamps=271 emergamps=325 units=km enabled=true phases=1
New "Line.mdv201_1012643fuse" bus1=1012641.3 bus2=1012643.3 length=0.001524 geometry=1PH-NONENONEBUSBARBUSBAR Seasons=1 Ratings=[0,] normamps=2000 emergamps=2400 units=km enabled=true phases=1
New "Line.mdv201_hn_2p027_c1160453" bus1=1012643.3 bus2=1160453.3 length=0.0993648 linecode=UG_1/0AL Seasons=1 Ratings=[400,] normamps=150 emergamps=150 units=km enabled=true phases=1
New "Line.hn_2p027_sw" bus1=1160453.3 bus2=mdv201_1012644elb_int.3 length=0.001 Switch=True units=km enabled=true phases=1
New "Line.mdv201_1012644elb" bus1=mdv201_1012644elb_int.3 bus2=1012644.3 length=0.001524 linecode=BUSBAR Seasons=1 Ratings=[400,] normamps=2000 emergamps=2000 units=km enabled=true phases=1
New "Line.s_mdv201_1012644elb-1c0" bus1=x_1012644.3 bus2=x_1012644_1.3 linecode=defaultSecondary Seasons=1 Ratings=[400,] normamps=400 emergamps=600 phases=1 length=100 units=ft
New "Line.mdv201_hn_21016_c63717" bus1=63716.3 bus2=63717.3 length=0.0527304 geometry=1PH-NONENONEAL_#2_7STRACSR_1/0_6/1 Seasons=1 Ratings=[0,] normamps=163 emergamps=196 units=km enabled=true phases=1
New "Line.s_mdv201_hn_21016_c63717-1c0" bus1=x_63717.3 bus2=x_63717_1.3 linecode=defaultSecondary Seasons=1 Ratings=[400,] normamps=400 emergamps=600 phases=1 length=100 units=ft
New "Line.mdv201_hn_2_288_c63719" bus1=63716.3 bus2=63719.3 length=0.0496824 geometry=1PH-NONENONEAL_#2_7STRACSR_1/0_6/1 Seasons=1 Ratings=[0,] normamps=163 emergamps=196 units=km enabled=true phases=1
New "Line.s_mdv201_hn_2_288_c63719-1c4" bus1=x_63719.3 bus2=x_63719_5.3 linecode=defaultSecondary Seasons=1 Ratings=[400,] normamps=400 emergamps=600 phases=1 length=100 units=ft
New "Line.s_mdv201_hn_2_288_c63719-1c3" bus1=x_63719.3 bus2=x_63719_4.3 linecode=defaultSecondary Seasons=1 Ratings=[400,] normamps=400 emergamps=600 phases=1 length=100 units=ft
New "Line.s_mdv201_hn_2_288_c63719-1c2" bus1=x_63719.3 bus2=x_63719_3.3 linecode=defaultSecondary Seasons=1 Ratings=[400,] normamps=400 emergamps=600 phases=1 length=100 units=ft
New "Line.s_mdv201_hn_2_288_c63719-1c1" bus1=x_63719.3 bus2=x_63719_2.3 linecode=defaultSecondary Seasons=1 Ratings=[400,] normamps=400 emergamps=600 phases=1 length=100 units=ft
New "Line.s_mdv201_hn_2_288_c63719-1c0" bus1=x_63719.3 bus2=x_63719_1.3 linecode=defaultSecondary Seasons=1 Ratings=[400,] normamps=400 emergamps=600 phases=1 length=100 units=ft
New "Line.mdv201_hn_2_091_abc44583" bus1=8160 bus2=44583 length=0.0332232 geometry=3PH_HORIZ_LG_1C-AL_4/0_7STRAL_4/0_7STRAL_4/0_7STRACSR_1/0_6/1 Seasons=1 Ratings=[0,] normamps=338 emergamps=406 units=km enabled=true phases=3
New "Line.s_mdv201_hn_2_091_abc44583-1c1" bus1=x_44583.3 bus2=x_44583_2.3 linecode=defaultSecondary Seasons=1 Ratings=[400,] normamps=400 emergamps=600 phases=1 length=100 units=ft
New "Line.s_mdv201_hn_2_091_abc44583-1c0" bus1=x_44583.3 bus2=x_44583_1.3 linecode=defaultSecondary Seasons=1 Ratings=[400,] normamps=400 emergamps=600 phases=1 length=100 units=ft
New "Line.mdv201_hn_2_248_abc44584" bus1=44583 bus2=44584 length=0.0301752 geometry=3PH_HORIZ_LG_1C-AL_4/0_7STRAL_4/0_7STRAL_4/0_7STRACSR_1/0_6/1 Seasons=1 Ratings=[0,] normamps=338 emergamps=406 units=km enabled=true phases=3
New "Line.s_mdv201_hn_2_248_abc44584-1c2" bus1=x_44584.3 bus2=x_44584_3.3 linecode=defaultSecondary Seasons=1 Ratings=[400,] normamps=400 emergamps=600 phases=1 length=100 units=ft
New "Line.s_mdv201_hn_2_248_abc44584-1c1" bus1=x_44584.3 bus2=x_44584_2.3 linecode=defaultSecondary Seasons=1 Ratings=[400,] normamps=400 emergamps=600 phases=1 length=100 units=ft
New "Line.s_mdv201_hn_2_248_abc44584-1c0" bus1=x_44584.3 bus2=x_44584_1.3 linecode=defaultSecondary Seasons=1 Ratings=[400,] normamps=400 emergamps=600 phases=1 length=100 units=ft
New "Line.mdv201_hn_2_089_abc8163" bus1=44584 bus2=8163 length=0.0600456 geometry=3PH_VERT_1C-AL_4/0_7STRAL_4/0_7STRAL_4/0_7STRACSR_1/0_6/1 Seasons=1 Ratings=[0,] normamps=338 emergamps=406 units=km enabled=true phases=3
New "Line.s_mdv201_hn_2_089_abc8163-1c2" bus1=x_8163.3 bus2=x_8163_3.3 linecode=defaultSecondary Seasons=1 Ratings=[400,] normamps=400 emergamps=600 phases=1 length=100 units=ft
New "Line.s_mdv201_hn_2_089_abc8163-1c1" bus1=x_8163.3 bus2=x_8163_2.3 linecode=defaultSecondary Seasons=1 Ratings=[400,] normamps=400 emergamps=600 phases=1 length=100 units=ft
New "Line.s_mdv201_hn_2_089_abc8163-1c0" bus1=x_8163.3 bus2=x_8163_1.3 linecode=defaultSecondary Seasons=1 Ratings=[400,] normamps=400 emergamps=600 phases=1 length=100 units=ft
New "Line.mdv201_hn_2_088_abc8164" bus1=8163 bus2=8164 length=0.0841248 geometry=3PH_HORIZ_LG_1C-AL_4/0_7STRAL_4/0_7STRAL_4/0_7STRACSR_1/0_6/1 Seasons=1 Ratings=[0,] normamps=338 emergamps=406 units=km enabled=true phases=3
New "Line.s_mdv201_hn_2_088_abc8164-1c3" bus1=x_8164.3 bus2=x_8164_4.3 linecode=defaultSecondary Seasons=1 Ratings=[400,] normamps=400 emergamps=600 phases=1 length=100 units=ft
New "Line.s_mdv201_hn_2_088_abc8164-1c2" bus1=x_8164.3 bus2=x_8164_3.3 linecode=defaultSecondary Seasons=1 Ratings=[400,] normamps=400 emergamps=600 phases=1 length=100 units=ft
New "Line.s_mdv201_hn_2_088_abc8164-1c1" bus1=x_8164.3 bus2=x_8164_2.3 linecode=defaultSecondary Seasons=1 Ratings=[400,] normamps=400 emergamps=600 phases=1 length=100 units=ft
New "Line.s_mdv201_hn_2_088_abc8164-1c0" bus1=x_8164.3 bus2=x_8164_1.3 linecode=defaultSecondary Seasons=1 Ratings=[400,] normamps=400 emergamps=600 phases=1 length=100 units=ft
New "Line.mdv201_hn_2_360_abc8165" bus1=8164 bus2=8165 length=0.0249936 geometry=3PH_HORIZ_LG_1C-AL_4/0_7STRAL_4/0_7STRAL_4/0_7STRACSR_1/0_6/1 Seasons=1 Ratings=[0,] normamps=338 emergamps=406 units=km enabled=true phases=3
New "Line.s_mdv201_hn_2_360_abc8165-1c1" bus1=x_8165.3 bus2=x_8165_2.3 linecode=defaultSecondary Seasons=1 Ratings=[400,] normamps=400 emergamps=600 phases=1 length=100 units=ft
New "Line.s_mdv201_hn_2_360_abc8165-1c0" bus1=x_8165.3 bus2=x_8165_1.3 linecode=defaultSecondary Seasons=1 Ratings=[400,] normamps=400 emergamps=600 phases=1 length=100 units=ft
New "Line.mdv201_hn_2_086_abc8167" bus1=8165 bus2=8167 length=0.0630936 geometry=3PH_HORIZ_LG_1C-AL_4/0_7STRAL_4/0_7STRAL_4/0_7STRACSR_1/0_6/1 Seasons=1 Ratings=[0,] normamps=338 emergamps=406 units=km enabled=true phases=3
New "Line.s_mdv201_hn_2_086_abc8167-1b4" bus1=x_8167.2 bus2=x_8167_5.2 linecode=defaultSecondary Seasons=1 Ratings=[400,] normamps=400 emergamps=600 phases=1 length=100 units=ft
New "Line.s_mdv201_hn_2_086_abc8167-1b3" bus1=x_8167.2 bus2=x_8167_4.2 linecode=defaultSecondary Seasons=1 Ratings=[400,] normamps=400 emergamps=600 phases=1 length=100 units=ft
New "Line.s_mdv201_hn_2_086_abc8167-1b2" bus1=x_8167.2 bus2=x_8167_3.2 linecode=defaultSecondary Seasons=1 Ratings=[400,] normamps=400 emergamps=600 phases=1 length=100 units=ft
New "Line.s_mdv201_hn_2_086_abc8167-1b1" bus1=x_8167.2 bus2=x_8167_2.2 linecode=defaultSecondary Seasons=1 Ratings=[400,] normamps=400 emergamps=600 phases=1 length=100 units=ft
New "Line.s_mdv201_hn_2_086_abc8167-1b0" bus1=x_8167.2 bus2=x_8167_1.2 linecode=defaultSecondary Seasons=1 Ratings=[400,] normamps=400 emergamps=600 phases=1 length=100 units=ft
New "Line.mdv201_hn_2_578_abc44585" bus1=8167 bus2=44585 length=0.0332232 geometry=3PH_HORIZ_LG_1C-AL_4/0_7STRAL_4/0_7STRAL_4/0_7STRACSR_1/0_6/1 Seasons=1 Ratings=[0,] normamps=338 emergamps=406 units=km enabled=true phases=3
New "Line.mdv201_hn_2_085_abc38388" bus1=44585 bus2=38388 length=0.0341376 geometry=3PH_HORIZ_LG_1C-AL_4/0_7STRAL_4/0_7STRAL_4/0_7STRACSR_1/0_6/1 Seasons=1 Ratings=[0,] normamps=338 emergamps=406 units=km enabled=true phases=3
New "Line.s_mdv201_hn_2_085_abc38388-1b2" bus1=x_38388.2 bus2=x_38388_3.2 linecode=defaultSecondary Seasons=1 Ratings=[400,] normamps=400 emergamps=600 phases=1 length=100 units=ft
New "Line.s_mdv201_hn_2_085_abc38388-1b1" bus1=x_38388.2 bus2=x_38388_2.2 linecode=defaultSecondary Seasons=1 Ratings=[400,] normamps=400 emergamps=600 phases=1 length=100 units=ft
New "Line.s_mdv201_hn_2_085_abc38388-1b0" bus1=x_38388.2 bus2=x_38388_1.2 linecode=defaultSecondary Seasons=1 Ratings=[400,] normamps=400 emergamps=600 phases=1 length=100 units=ft
New "Line.mdv201_hn_2_312_abc44586" bus1=38388 bus2=44586 length=0.0603504 geometry=3PH_HORIZ_LG_1C-AL_4/0_7STRAL_4/0_7STRAL_4/0_7STRACSR_1/0_6/1 Seasons=1 Ratings=[0,] normamps=338 emergamps=406 units=km enabled=true phases=3
New "Line.s_mdv201_hn_2_312_abc44586-1b0" bus1=x_44586.2 bus2=x_44586_1.2 linecode=defaultSecondary Seasons=1 Ratings=[400,] normamps=400 emergamps=600 phases=1 length=100 units=ft
New "Line.mdv201_hn_2_657_c62231" bus1=44586.3 bus2=62231.3 length=0.0179832 geometry=1PH-NONENONEAL_1/0_7STRACSR_1/0_6/1 Seasons=1 Ratings=[0,] normamps=218 emergamps=262 units=km enabled=true phases=1
New "Line.mdv201_106883fuse" bus1=62231.3 bus2=106883.3 length=0.001524 geometry=1PH-NONENONEBUSBARBUSBAR Seasons=1 Ratings=[0,] normamps=2000 emergamps=2400 units=km enabled=true phases=1
New "Line.mdv201_hn_2_658_c62236" bus1=106883.3 bus2=62236.3 length=0.0573024 geometry=1PH-NONENONEAL_1/0_7STRACSR_1/0_6/1 Seasons=1 Ratings=[0,] normamps=218 emergamps=262 units=km enabled=true phases=1
New "Line.s_mdv201_hn_2_658_c62236-1c2" bus1=x_62236.3 bus2=x_62236_3.3 linecode=defaultSecondary Seasons=1 Ratings=[400,] normamps=400 emergamps=600 phases=1 length=100 units=ft
New "Line.s_mdv201_hn_2_658_c62236-1c1" bus1=x_62236.3 bus2=x_62236_2.3 linecode=defaultSecondary Seasons=1 Ratings=[400,] normamps=400 emergamps=600 phases=1 length=100 units=ft
New "Line.s_mdv201_hn_2_658_c62236-1c0" bus1=x_62236.3 bus2=x_62236_1.3 linecode=defaultSecondary Seasons=1 Ratings=[400,] normamps=400 emergamps=600 phases=1 length=100 units=ft
New "Line.mdv201_hn_2_659_c62237" bus1=62236.3 bus2=62237.3 length=0.0591312 geometry=1PH-NONENONEAL_1/0_7STRACSR_1/0_6/1 Seasons=1 Ratings=[0,] normamps=218 emergamps=262 units=km enabled=true phases=1
New "Line.mdv201_hn_2_660_c62246" bus1=62237.3 bus2=62246.3 length=0.0432816 geometry=1PH-NONENONEAL_1/0_7STRACSR_1/0_6/1 Seasons=1 Ratings=[0,] normamps=218 emergamps=262 units=km enabled=true phases=1
New "Line.s_mdv201_hn_2_660_c62246-1c1" bus1=x_62246.3 bus2=x_62246_2.3 linecode=defaultSecondary Seasons=1 Ratings=[400,] normamps=400 emergamps=600 phases=1 length=100 units=ft
New "Line.s_mdv201_hn_2_660_c62246-1c0" bus1=x_62246.3 bus2=x_62246_1.3 linecode=defaultSecondary Seasons=1 Ratings=[400,] normamps=400 emergamps=600 phases=1 length=100 units=ft
New "Line.mdv201_hn_2_661_c62248" bus1=62246.3 bus2=62248.3 length=0.0478536 geometry=1PH-NONENONEAL_1/0_7STRACSR_1/0_6/1 Seasons=1 Ratings=[0,] normamps=218 emergamps=262 units=km enabled=true phases=1
New "Line.s_mdv201_hn_2_661_c62248-1c1" bus1=x_62248.3 bus2=x_62248_2.3 linecode=defaultSecondary Seasons=1 Ratings=[400,] normamps=400 emergamps=600 phases=1 length=100 units=ft
New "Line.s_mdv201_hn_2_661_c62248-1c0" bus1=x_62248.3 bus2=x_62248_1.3 linecode=defaultSecondary Seasons=1 Ratings=[400,] normamps=400 emergamps=600 phases=1 length=100 units=ft
New "Line.mdv201_hn_21095_c1148537" bus1=62237.3 bus2=1148537.3 length=0.0762 geometry=1PH-NONENONEAL_1/0_7STRACSR_1/0_6/1 Seasons=1 Ratings=[0,] normamps=218 emergamps=262 units=km enabled=true phases=1
New "Line.s_mdv201_hn_21095_c1148537-1c0" bus1=x_1148537.3 bus2=x_1148537_1.3 linecode=defaultSecondary Seasons=1 Ratings=[400,] normamps=400 emergamps=600 phases=1 length=100 units=ft
New "Line.mdv201_1149722fuse" bus1=1148537.3 bus2=1149722.3 length=0.001524 geometry=1PH-NONENONEBUSBARBUSBAR Seasons=1 Ratings=[0,] normamps=2000 emergamps=2400 units=km enabled=true phases=1
New "Line.mdv201_hn_2p053_c1163437" bus1=1149722.3 bus2=1163437.3 length=0.0749808 linecode=UG_1/0AL Seasons=1 Ratings=[400,] normamps=150 emergamps=150 units=km enabled=true phases=1
New "Line.hn_2p053_sw" bus1=1163437.3 bus2=mdv201_1163438elb_int.3 length=0.001 Switch=True units=km enabled=true phases=1
New "Line.mdv201_1163438elb" bus1=mdv201_1163438elb_int.3 bus2=1163438.3 length=0.001524 linecode=BUSBAR Seasons=1 Ratings=[400,] normamps=2000 emergamps=2000 units=km enabled=true phases=1
New "Line.mdv201_1163441elb-1_sw" bus1=1163438.3 bus2=mdv201_1163441elb_int.3 length=0.001 Switch=True units=km enabled=true phases=1
New "Line.mdv201_1163441elb" bus1=mdv201_1163441elb_int.3 bus2=1163441.3 length=0.001524 linecode=BUSBAR Seasons=1 Ratings=[400,] normamps=2000 emergamps=2000 units=km enabled=true phases=1
New "Line.mdv201_hn_2p054_c1163442" bus1=1163441.3 bus2=1163442.3 length=0.0728472 linecode=UG_1/0AL Seasons=1 Ratings=[400,] normamps=150 emergamps=150 units=km enabled=true phases=1
New "Line.hn_2p054_sw" bus1=1163442.3 bus2=mdv201_1163443elb_int.3 length=0.001 Switch=True units=km enabled=true phases=1