New "Line.157133" bus1=165467.1.2.3 bus2=165468.1.2.3 length=28.48011 linecode=45 Seasons=1 Ratings=[400,] normamps=637 emergamps=700 units=m enabled=true phases=3
New "Line.157142" bus1=165468.1.2.3 bus2=165469.1.2.3 length=28.2101 linecode=45 Seasons=1 Ratings=[400,] normamps=637 emergamps=700 units=m enabled=true phases=3
New "Line.285774" bus1=165469.1.2.3 bus2=287274.1.2.3 length=40.83015 linecode=40 Seasons=1 Ratings=[400,] normamps=160 emergamps=190 units=m enabled=true phases=3
New "Line.285775" bus1=287274.1.2.3 bus2=287275.1.2.3 length=40.56015 linecode=40 Seasons=1 Ratings=[400,] normamps=160 emergamps=190 units=m enabled=true phases=3
New "Line.s_1007732-dc1" bus1=x_1007732.3 bus2=s1x_1007732.3 linecode=defaultSecondary Seasons=1 Ratings=[400,] normamps=400 emergamps=600 length=100 units=ft
New "Line.s_1007732-db1" bus1=x_1007732.2 bus2=s1x_1007732.2 linecode=defaultSecondary Seasons=1 Ratings=[400,] normamps=400 emergamps=600 length=100 units=ft
New "Line.s_1007732-da1" bus1=x_1007732.1 bus2=s1x_1007732.1 linecode=defaultSecondary Seasons=1 Ratings=[400,] normamps=400 emergamps=600 length=100 units=ft
New "Line.261184" bus1=165469.1.2.3 bus2=261836.1.2.3 length=46.23017 linecode=40 Seasons=1 Ratings=[400,] normamps=160 emergamps=190 units=m enabled=true phases=3
New "Line.261181" bus1=261836.1.2.3 bus2=261837.1.2.3 length=7.640028 linecode=99 Seasons=1 Ratings=[400,] normamps=500 emergamps=550 units=m enabled=true phases=3
New "Line.235748" bus1=232497.1.2.3 bus2=261837.1.2.3 length=9.470036 linecode=40 Seasons=1 Ratings=[400,] normamps=160 emergamps=190 units=m enabled=true phases=3
New "Line.279295" bus1=280598.1.2.3 bus2=232497.1.2.3 length=6.100023 linecode=40 Seasons=1 Ratings=[400,] normamps=160 emergamps=190 units=m enabled=true phases=3
New "Line.279296" bus1=280598.1.2.3 bus2=280597.1.2.3 length=4.310016 linecode=40 Seasons=1 Ratings=[400,] normamps=160 emergamps=190 units=m enabled=true phases=3
New "Line.279294" bus1=280596.1.2.3 bus2=280597.1.2.3 length=7.640028 linecode=99 Seasons=1 Ratings=[400,] normamps=500 emergamps=550 units=m enabled=true phases=3
New "Line.279297" bus1=280596.1.2.3 bus2=280600.1.2.3 length=2.74001 linecode=40 Seasons=1 Ratings=[400,] normamps=160 emergamps=190 units=m enabled=true phases=3
New "Line.s_1003134-da3" bus1=x_1003134.1.2.3 bus2=s3x_1003134.1.2.3 linecode=defaultSecondary3P Seasons=1 Ratings=[400,] normamps=299 emergamps=373.75 length=100 units=ft
New "Line.s_1003134-da2" bus1=x_1003134.1.2.3 bus2=s2x_1003134.1.2.3 linecode=defaultSecondary3P Seasons=1 Ratings=[400,] normamps=299 emergamps=373.75 length=100 units=ft
New "Line.s_1003134-da1" bus1=x_1003134.1.2.3 bus2=s1x_1003134.1.2.3 linecode=defaultSecondary3P Seasons=1 Ratings=[400,] normamps=299 emergamps=373.75 length=100 units=ft
New "Line.272824" bus1=273626.1.2.3 bus2=280598.1.2.3 length=26.3301 linecode=40 Seasons=1 Ratings=[400,] normamps=160 emergamps=190 units=m enabled=true phases=3
New "Line.s_1003127-db1" bus1=x_1003127.2 bus2=s1x_1003127.2 linecode=defaultSecondary Seasons=1 Ratings=[400,] normamps=400 emergamps=600 length=100 units=ft
New "Line.157138" bus1=165475.1.2.3 bus2=273626.1.2.3 length=37.61014 linecode=40 Seasons=1 Ratings=[400,] normamps=160 emergamps=190 units=m enabled=true phases=3
New "Line.157136" bus1=165475.1.2.3 bus2=165476.1.2.3 length=7.630028 linecode=99 Seasons=1 Ratings=[400,] normamps=500 emergamps=550 units=m enabled=true phases=3
New "Line.157137" bus1=165477.1.2.3 bus2=165476.1.2.3 length=34.38013 linecode=186 Seasons=1 Ratings=[400,] normamps=214 emergamps=235 units=m enabled=true phases=3
New "Line.s_1001708-da3" bus1=x_1001708.1.2.3 bus2=s3x_1001708.1.2.3 linecode=defaultSecondary3P Seasons=1 Ratings=[400,] normamps=299 emergamps=373.75 length=100 units=ft
New "Line.s_1001708-da2" bus1=x_1001708.1.2.3 bus2=s2x_1001708.1.2.3 linecode=defaultSecondary3P Seasons=1 Ratings=[400,] normamps=299 emergamps=373.75 length=100 units=ft
New "Line.s_1001708-da1" bus1=x_1001708.1.2.3 bus2=s1x_1001708.1.2.3 linecode=defaultSecondary3P Seasons=1 Ratings=[400,] normamps=299 emergamps=373.75 length=100 units=ft
New "Line.157143" bus1=165469.1.2.3 bus2=165480.1.2.3 length=42.86016 linecode=45 Seasons=1 Ratings=[400,] normamps=637 emergamps=700 units=m enabled=true phases=3
New "Line.157145" bus1=165480.1.2.3 bus2=165478.1.2.3 length=29.72011 linecode=45 Seasons=1 Ratings=[400,] normamps=637 emergamps=700 units=m enabled=true phases=3
New "Line.157149" bus1=261838.1.2.3 bus2=165478.1.2.3 length=34.73013 linecode=40 Seasons=1 Ratings=[400,] normamps=160 emergamps=190 units=m enabled=true phases=3
New "Line.261185" bus1=261838.1.2.3 bus2=261839.1.2.3 length=7.630028 linecode=99 Seasons=1 Ratings=[400,] normamps=500 emergamps=550 units=m enabled=true phases=3
New "Line.157148" bus1=165483.1.2.3 bus2=261839.1.2.3 length=5.26002 linecode=186 Seasons=1 Ratings=[400,] normamps=214 emergamps=235 units=m enabled=true phases=3
New "Line.s_1001345-da3" bus1=x_1001345.1.2.3 bus2=s3x_1001345.1.2.3 linecode=defaultSecondary3P Seasons=1 Ratings=[400,] normamps=299 emergamps=373.75 length=100 units=ft
New "Line.s_1001345-da2" bus1=x_1001345.1.2.3 bus2=s2x_1001345.1.2.3 linecode=defaultSecondary3P Seasons=1 Ratings=[400,] normamps=299 emergamps=373.75 length=100 units=ft
New "Line.s_1001345-da1" bus1=x_1001345.1.2.3 bus2=s1x_1001345.1.2.3 linecode=defaultSecondary3P Seasons=1 Ratings=[400,] normamps=299 emergamps=373.75 length=100 units=ft
New "Line.157147" bus1=165484.1.2.3 bus2=165483.1.2.3 length=22.03008 linecode=186 Seasons=1 Ratings=[400,] normamps=214 emergamps=235 units=m enabled=true phases=3
New "Line.s_1000933-da15" bus1=x_1000933.1.2.3 bus2=s15x_1000933.1.2.3 linecode=defaultSecondary3P Seasons=1 Ratings=[400,] normamps=299 emergamps=373.75 length=100 units=ft
New "Line.s_1000933-da14" bus1=x_1000933.1.2.3 bus2=s14x_1000933.1.2.3 linecode=defaultSecondary3P Seasons=1 Ratings=[400,] normamps=299 emergamps=373.75 length=100 units=ft
New "Line.s_1000933-da13" bus1=x_1000933.1.2.3 bus2=s13x_1000933.1.2.3 linecode=defaultSecondary3P Seasons=1 Ratings=[400,] normamps=299 emergamps=373.75 length=100 units=ft
New "Line.s_1000933-da12" bus1=x_1000933.1.2.3 bus2=s12x_1000933.1.2.3 linecode=defaultSecondary3P Seasons=1 Ratings=[400,] normamps=299 emergamps=373.75 length=100 units=ft
New "Line.s_1000933-da11" bus1=x_1000933.1.2.3 bus2=s11x_1000933.1.2.3 linecode=defaultSecondary3P Seasons=1 Ratings=[400,] normamps=299 emergamps=373.75 length=100 units=ft
New "Line.s_1000933-da10" bus1=x_1000933.1.2.3 bus2=s10x_1000933.1.2.3 linecode=defaultSecondary3P Seasons=1 Ratings=[400,] normamps=299 emergamps=373.75 length=100 units=ft
New "Line.s_1000933-da9" bus1=x_1000933.1.2.3 bus2=s9x_1000933.1.2.3 linecode=defaultSecondary3P Seasons=1 Ratings=[400,] normamps=299 emergamps=373.75 length=100 units=ft
New "Line.s_1000933-da8" bus1=x_1000933.1.2.3 bus2=s8x_1000933.1.2.3 linecode=defaultSecondary3P Seasons=1 Ratings=[400,] normamps=299 emergamps=373.75 length=100 units=ft
New "Line.s_1000933-da7" bus1=x_1000933.1.2.3 bus2=s7x_1000933.1.2.3 linecode=defaultSecondary3P Seasons=1 Ratings=[400,] normamps=299 emergamps=373.75 length=100 units=ft
New "Line.s_1000933-da6" bus1=x_1000933.1.2.3 bus2=s6x_1000933.1.2.3 linecode=defaultSecondary3P Seasons=1 Ratings=[400,] normamps=299 emergamps=373.75 length=100 units=ft
New "Line.s_1000933-da5" bus1=x_1000933.1.2.3 bus2=s5x_1000933.1.2.3 linecode=defaultSecondary3P Seasons=1 Ratings=[400,] normamps=299 emergamps=373.75 length=100 units=ft
New "Line.s_1000933-da4" bus1=x_1000933.1.2.3 bus2=s4x_1000933.1.2.3 linecode=defaultSecondary3P Seasons=1 Ratings=[400,] normamps=299 emergamps=373.75 length=100 units=ft
New "Line.s_1000933-da3" bus1=x_1000933.1.2.3 bus2=s3x_1000933.1.2.3 linecode=defaultSecondary3P Seasons=1 Ratings=[400,] normamps=299 emergamps=373.75 length=100 units=ft
New "Line.s_1000933-da2" bus1=x_1000933.1.2.3 bus2=s2x_1000933.1.2.3 linecode=defaultSecondary3P Seasons=1 Ratings=[400,] normamps=299 emergamps=373.75 length=100 units=ft
New "Line.s_1000933-da1" bus1=x_1000933.1.2.3 bus2=s1x_1000933.1.2.3 linecode=defaultSecondary3P Seasons=1 Ratings=[400,] normamps=299 emergamps=373.75 length=100 units=ft
New "Line.157144" bus1=165478.1.2.3 bus2=165479.1.2.3 length=31.57012 linecode=45 Seasons=1 Ratings=[400,] normamps=637 emergamps=700 units=m enabled=true phases=3
New "Line.157152" bus1=165479.1.2.3 bus2=165487.1.2.3 length=46.28017 linecode=45 Seasons=1 Ratings=[400,] normamps=637 emergamps=700 units=m enabled=true phases=3
New "Line.255461" bus1=165487.1 bus2=165489.1 length=46.82018 linecode=62 Seasons=1 Ratings=[400,] normamps=160 emergamps=190 units=m enabled=true phases=1
New "Line.157153" bus1=165488.1 bus2=165489.1 length=7.630028 linecode=251 Seasons=1 Ratings=[400,] normamps=500 emergamps=550 units=m enabled=true phases=1
New "Line.157155" bus1=165488.1 bus2=165491.1 length=27.8401 linecode=62 Seasons=1 Ratings=[400,] normamps=160 emergamps=190 units=m enabled=true phases=1
New "Line.s_1000042-da7" bus1=x_1000042.1 bus2=s7x_1000042.1 linecode=defaultSecondary Seasons=1 Ratings=[400,] normamps=400 emergamps=600 length=100 units=ft
New "Line.s_1000042-da6" bus1=x_1000042.1 bus2=s6x_1000042.1 linecode=defaultSecondary Seasons=1 Ratings=[400,] normamps=400 emergamps=600 length=100 units=ft
New "Line.s_1000042-da5" bus1=x_1000042.1 bus2=s5x_1000042.1 linecode=defaultSecondary Seasons=1 Ratings=[400,] normamps=400 emergamps=600 length=100 units=ft
New "Line.s_1000042-da4" bus1=x_1000042.1 bus2=s4x_1000042.1 linecode=defaultSecondary Seasons=1 Ratings=[400,] normamps=400 emergamps=600 length=100 units=ft
New "Line.s_1000042-da3" bus1=x_1000042.1 bus2=s3x_1000042.1 linecode=defaultSecondary Seasons=1 Ratings=[400,] normamps=400 emergamps=600 length=100 units=ft
New "Line.s_1000042-da2" bus1=x_1000042.1 bus2=s2x_1000042.1 linecode=defaultSecondary Seasons=1 Ratings=[400,] normamps=400 emergamps=600 length=100 units=ft
New "Line.s_1000042-da1" bus1=x_1000042.1 bus2=s1x_1000042.1 linecode=defaultSecondary Seasons=1 Ratings=[400,] normamps=400 emergamps=600 length=100 units=ft
New "Line.157156" bus1=165491.1 bus2=165490.1 length=48.30018 linecode=62 Seasons=1 Ratings=[400,] normamps=160 emergamps=190 units=m enabled=true phases=1
New "Line.157158" bus1=165490.1 bus2=165492.1 length=177.8307 linecode=62 Seasons=1 Ratings=[400,] normamps=160 emergamps=190 units=m enabled=true phases=1
New "Line.s_1000077-da6" bus1=x_1000077.1 bus2=s6x_1000077.1 linecode=defaultSecondary Seasons=1 Ratings=[400,] normamps=400 emergamps=600 length=100 units=ft
New "Line.s_1000077-da5" bus1=x_1000077.1 bus2=s5x_1000077.1 linecode=defaultSecondary Seasons=1 Ratings=[400,] normamps=400 emergamps=600 length=100 units=ft
New "Line.s_1000077-da4" bus1=x_1000077.1 bus2=s4x_1000077.1 linecode=defaultSecondary Seasons=1 Ratings=[400,] normamps=400 emergamps=600 length=100 units=ft
New "Line.s_1000077-da3" bus1=x_1000077.1 bus2=s3x_1000077.1 linecode=defaultSecondary Seasons=1 Ratings=[400,] normamps=400 emergamps=600 length=100 units=ft
New "Line.s_1000077-da2" bus1=x_1000077.1 bus2=s2x_1000077.1 linecode=defaultSecondary Seasons=1 Ratings=[400,] normamps=400 emergamps=600 length=100 units=ft
New "Line.s_1000077-da1" bus1=x_1000077.1 bus2=s1x_1000077.1 linecode=defaultSecondary Seasons=1 Ratings=[400,] normamps=400 emergamps=600 length=100 units=ft
New "Line.157157" bus1=165490.1 bus2=165494.1 length=72.38026 linecode=62 Seasons=1 Ratings=[400,] normamps=160 emergamps=190 units=m enabled=true phases=1
New "Line.s_1000043-da6" bus1=x_1000043.1 bus2=s6x_1000043.1 linecode=defaultSecondary Seasons=1 Ratings=[400,] normamps=400 emergamps=600 length=100 units=ft
New "Line.s_1000043-da5" bus1=x_1000043.1 bus2=s5x_1000043.1 linecode=defaultSecondary Seasons=1 Ratings=[400,] normamps=400 emergamps=600 length=100 units=ft
New "Line.s_1000043-da4" bus1=x_1000043.1 bus2=s4x_1000043.1 linecode=defaultSecondary Seasons=1 Ratings=[400,] normamps=400 emergamps=600 length=100 units=ft
New "Line.s_1000043-da3" bus1=x_1000043.1 bus2=s3x_1000043.1 linecode=defaultSecondary Seasons=1 Ratings=[400,] normamps=400 emergamps=600 length=100 units=ft
New "Line.s_1000043-da2" bus1=x_1000043.1 bus2=s2x_1000043.1 linecode=defaultSecondary Seasons=1 Ratings=[400,] normamps=400 emergamps=600 length=100 units=ft
New "Line.s_1000043-da1" bus1=x_1000043.1 bus2=s1x_1000043.1 linecode=defaultSecondary Seasons=1 Ratings=[400,] normamps=400 emergamps=600 length=100 units=ft
New "Line.157159" bus1=165494.1 bus2=165493.1 length=110.7904 linecode=62 Seasons=1 Ratings=[400,] normamps=160 emergamps=190 units=m enabled=true phases=1
New "Line.s_1000474-da5" bus1=x_1000474.1 bus2=s5x_1000474.1 linecode=defaultSecondary Seasons=1 Ratings=[400,] normamps=400 emergamps=600 length=100 units=ft
New "Line.s_1000474-da4" bus1=x_1000474.1 bus2=s4x_1000474.1 linecode=defaultSecondary Seasons=1 Ratings=[400,] normamps=400 emergamps=600 length=100 units=ft
New "Line.s_1000474-da3" bus1=x_1000474.1 bus2=s3x_1000474.1 linecode=defaultSecondary Seasons=1 Ratings=[400,] normamps=400 emergamps=600 length=100 units=ft
New "Line.s_1000474-da2" bus1=x_1000474.1 bus2=s2x_1000474.1 linecode=defaultSecondary Seasons=1 Ratings=[400,] normamps=400 emergamps=600 length=100 units=ft
New "Line.s_1000474-da1" bus1=x_1000474.1 bus2=s1x_1000474.1 linecode=defaultSecondary Seasons=1 Ratings=[400,] normamps=400 emergamps=600 length=100 units=ft
New "Line.157160" bus1=165487.1.2.3 bus2=283952.1.2.3 length=51.7402 linecode=45 Seasons=1 Ratings=[400,] normamps=637 emergamps=700 units=m enabled=true phases=3
New "Line.282437" bus1=283952.1.2.3 bus2=283954.1.2.3 length=51.6502 linecode=40 Seasons=1 Ratings=[400,] normamps=160 emergamps=190 units=m enabled=true phases=3
New "Line.282436" bus1=283954.1.2.3 bus2=283955.1.2.3 length=7.770029 linecode=99 Seasons=1 Ratings=[400,] normamps=500 emergamps=550 units=m enabled=true phases=3
New "Line.282438" bus1=283955.1.2.3 bus2=283956.1.2.3 length=185.7807 linecode=185 Seasons=1 Ratings=[400,] normamps=213 emergamps=234 units=m enabled=true phases=3
New "Line.s_1003140-da3" bus1=x_1003140.1.2.3 bus2=s3x_1003140.1.2.3 linecode=defaultSecondary3P Seasons=1 Ratings=[400,] normamps=299 emergamps=373.75 length=100 units=ft
New "Line.s_1003140-da2" bus1=x_1003140.1.2.3 bus2=s2x_1003140.1.2.3 linecode=defaultSecondary3P Seasons=1 Ratings=[400,] normamps=299 emergamps=373.75 length=100 units=ft
New "Line.s_1003140-da1" bus1=x_1003140.1.2.3 bus2=s1x_1003140.1.2.3 linecode=defaultSecondary3P Seasons=1 Ratings=[400,] normamps=299 emergamps=373.75 length=100 units=ft
New "Line.282435" bus1=283952.1.2.3 bus2=165495.1.2.3 length=104.7904 linecode=45 Seasons=1 Ratings=[400,] normamps=637 emergamps=700 units=m enabled=true phases=3
New "Line.157168" bus1=165495.1.2.3 bus2=165504.1.2.3 length=292.5211 linecode=40 Seasons=1 Ratings=[400,] normamps=160 emergamps=190 units=m enabled=true phases=3
New "Line.175051" bus1=165504.1.2.3 bus2=261881.1.2.3 length=30.52011 linecode=45 Seasons=1 Ratings=[400,] normamps=637 emergamps=700 units=m enabled=true phases=3
New "Line.261249" bus1=261880.1.2.3 bus2=261881.1.2.3 length=0.001 linecode=99 Seasons=1 Ratings=[400,] normamps=500 emergamps=550 Switch=True units=m enabled=true phases=3
New "Line.183048" bus1=261881.1.2.3 bus2=189963.1.2.3 length=62.51023 linecode=141 Seasons=1 Ratings=[400,] normamps=519 emergamps=617 units=m enabled=true phases=3
New "Line.183046" bus1=189963.1.2.3 bus2=189960.1.2.3 length=0.001 linecode=98 Seasons=1 Ratings=[400,] normamps=500 emergamps=550 Switch=True units=m enabled=true phases=3
New "Line.183045" bus1=189962.1.2.3 bus2=189960.1.2.3 length=8.840034 linecode=98 Seasons=1 Ratings=[400,] normamps=500 emergamps=550 units=m enabled=true phases=3
New "Line.184253" bus1=194054.1 bus2=189962.1 length=64.99024 linecode=181 Seasons=1 Ratings=[400,] normamps=213 emergamps=234 units=m enabled=true phases=1
New "Line.s_1001223-da4" bus1=x_1001223.1 bus2=s4x_1001223.1 linecode=defaultSecondary Seasons=1 Ratings=[400,] normamps=400 emergamps=600 length=100 units=ft
New "Line.s_1001223-da3" bus1=x_1001223.1 bus2=s3x_1001223.1 linecode=defaultSecondary Seasons=1 Ratings=[400,] normamps=400 emergamps=600 length=100 units=ft
New "Line.s_1001223-da2" bus1=x_1001223.1 bus2=s2x_1001223.1 linecode=defaultSecondary Seasons=1 Ratings=[400,] normamps=400 emergamps=600 length=100 units=ft
New "Line.s_1001223-da1" bus1=x_1001223.1 bus2=s1x_1001223.1 linecode=defaultSecondary Seasons=1 Ratings=[400,] normamps=400 emergamps=600 length=100 units=ft
New "Line.184246" bus1=194054.1 bus2=194055.1 length=40.92015 linecode=181 Seasons=1 Ratings=[400,] normamps=213 emergamps=234 units=m enabled=true phases=1
New "Line.s_1001222-da8" bus1=x_1001222.1 bus2=s8x_1001222.1 linecode=defaultSecondary Seasons=1 Ratings=[400,] normamps=400 emergamps=600 length=100 units=ft
New "Line.s_1001222-da7" bus1=x_1001222.1 bus2=s7x_1001222.1 linecode=defaultSecondary Seasons=1 Ratings=[400,] normamps=400 emergamps=600 length=100 units=ft
New "Line.s_1001222-da6" bus1=x_1001222.1 bus2=s6x_1001222.1 linecode=defaultSecondary Seasons=1 Ratings=[400,] normamps=400 emergamps=600 length=100 units=ft
New "Line.s_1001222-da5" bus1=x_1001222.1 bus2=s5x_1001222.1 linecode=defaultSecondary Seasons=1 Ratings=[400,] normamps=400 emergamps=600 length=100 units=ft
New "Line.s_1001222-da4" bus1=x_1001222.1 bus2=s4x_1001222.1 linecode=defaultSecondary Seasons=1 Ratings=[400,] normamps=400 emergamps=600 length=100 units=ft
New "Line.s_1001222-da3" bus1=x_1001222.1 bus2=s3x_1001222.1 linecode=defaultSecondary Seasons=1 Ratings=[400,] normamps=400 emergamps=600 length=100 units=ft
New "Line.s_1001222-da2" bus1=x_1001222.1 bus2=s2x_1001222.1 linecode=defaultSecondary Seasons=1 Ratings=[400,] normamps=400 emergamps=600 length=100 units=ft
New "Line.s_1001222-da1" bus1=x_1001222.1 bus2=s1x_1001222.1 linecode=defaultSecondary Seasons=1 Ratings=[400,] normamps=400 emergamps=600 length=100 units=ft
New "Line.184247" bus1=194055.1 bus2=194056.1 length=58.71022 linecode=181 Seasons=1 Ratings=[400,] normamps=213 emergamps=234 units=m enabled=true phases=1
New "Line.s_1001221-da1" bus1=x_1001221.1 bus2=s1x_1001221.1 linecode=defaultSecondary Seasons=1 Ratings=[400,] normamps=400 emergamps=600 length=100 units=ft
New "Line.184248" bus1=194056.1 bus2=194057.1 length=49.01018 linecode=181 Seasons=1 Ratings=[400,] normamps=213 emergamps=234 units=m enabled=true phases=1
New "Line.s_1001219-da2" bus1=x_1001219.1 bus2=s2x_1001219.1 linecode=defaultSecondary Seasons=1 Ratings=[400,] normamps=400 emergamps=600 length=100 units=ft
New "Line.s_1001219-da1" bus1=x_1001219.1 bus2=s1x_1001219.1 linecode=defaultSecondary Seasons=1 Ratings=[400,] normamps=400 emergamps=600 length=100 units=ft
New "Line.184252" bus1=194058.3 bus2=189962.3 length=47.73018 linecode=181 Seasons=1 Ratings=[400,] normamps=213 emergamps=234 units=m enabled=true phases=1
New "Line.s_1001224-dc7" bus1=x_1001224.3 bus2=s7x_1001224.3 linecode=defaultSecondary Seasons=1 Ratings=[400,] normamps=400 emergamps=600 length=100 units=ft
New "Line.s_1001224-dc6" bus1=x_1001224.3 bus2=s6x_1001224.3 linecode=defaultSecondary Seasons=1 Ratings=[400,] normamps=400 emergamps=600 length=100 units=ft
New "Line.s_1001224-dc5" bus1=x_1001224.3 bus2=s5x_1001224.3 linecode=defaultSecondary Seasons=1 Ratings=[400,] normamps=400 emergamps=600 length=100 units=ft
New "Line.s_1001224-dc4" bus1=x_1001224.3 bus2=s4x_1001224.3 linecode=defaultSecondary Seasons=1 Ratings=[400,] normamps=400 emergamps=600 length=100 units=ft
New "Line.s_1001224-dc3" bus1=x_1001224.3 bus2=s3x_1001224.3 linecode=defaultSecondary Seasons=1 Ratings=[400,] normamps=400 emergamps=600 length=100 units=ft
New "Line.s_1001224-dc2" bus1=x_1001224.3 bus2=s2x_1001224.3 linecode=defaultSecondary Seasons=1 Ratings=[400,] normamps=400 emergamps=600 length=100 units=ft
New "Line.s_1001224-dc1" bus1=x_1001224.3 bus2=s1x_1001224.3 linecode=defaultSecondary Seasons=1 Ratings=[400,] normamps=400 emergamps=600 length=100 units=ft
New "Line.184249" bus1=194058.3 bus2=194053.3 length=32.68012 linecode=181 Seasons=1 Ratings=[400,] normamps=213 emergamps=234 units=m enabled=true phases=1
New "Line.s_1001225-dc5" bus1=x_1001225.3 bus2=s5x_1001225.3 linecode=defaultSecondary Seasons=1 Ratings=[400,] normamps=400 emergamps=600 length=100 units=ft
New "Line.s_1001225-dc4" bus1=x_1001225.3 bus2=s4x_1001225.3 linecode=defaultSecondary Seasons=1 Ratings=[400,] normamps=400 emergamps=600 length=100 units=ft
New "Line.s_1001225-dc3" bus1=x_1001225.3 bus2=s3x_1001225.3 linecode=defaultSecondary Seasons=1 Ratings=[400,] normamps=400 emergamps=600 length=100 units=ft
New "Line.s_1001225-dc2" bus1=x_1001225.3 bus2=s2x_1001225.3 linecode=defaultSecondary Seasons=1 Ratings=[400,] normamps=400 emergamps=600 length=100 units=ft
New "Line.s_1001225-dc1" bus1=x_1001225.3 bus2=s1x_1001225.3 linecode=defaultSecondary Seasons=1 Ratings=[400,] normamps=400 emergamps=600 length=100 units=ft
New "Line.184250" bus1=194053.3 bus2=194052.3 length=23.84009 linecode=181 Seasons=1 Ratings=[400,] normamps=213 emergamps=234 units=m enabled=true phases=1
New "Line.s_1001226-dc4" bus1=x_1001226.3 bus2=s4x_1001226.3 linecode=defaultSecondary Seasons=1 Ratings=[400,] normamps=400 emergamps=600 length=100 units=ft
New "Line.s_1001226-dc3" bus1=x_1001226.3 bus2=s3x_1001226.3 linecode=defaultSecondary Seasons=1 Ratings=[400,] normamps=400 emergamps=600 length=100 units=ft
New "Line.s_1001226-dc2" bus1=x_1001226.3 bus2=s2x_1001226.3 linecode=defaultSecondary Seasons=1 Ratings=[400,] normamps=400 emergamps=600 length=100 units=ft
New "Line.s_1001226-dc1" bus1=x_1001226.3 bus2=s1x_1001226.3 linecode=defaultSecondary Seasons=1 Ratings=[400,] normamps=400 emergamps=600 length=100 units=ft
New "Line.184251" bus1=194052.3 bus2=194051.3 length=33.25013 linecode=181 Seasons=1 Ratings=[400,] normamps=213 emergamps=234 units=m enabled=true phases=1
New "Line.s_1001227-dc5" bus1=x_1001227.3 bus2=s5x_1001227.3 linecode=defaultSecondary Seasons=1 Ratings=[400,] normamps=400 emergamps=600 length=100 units=ft
New "Line.s_1001227-dc4" bus1=x_1001227.3 bus2=s4x_1001227.3 linecode=defaultSecondary Seasons=1 Ratings=[400,] normamps=400 emergamps=600 length=100 units=ft
New "Line.s_1001227-dc3" bus1=x_1001227.3 bus2=s3x_1001227.3 linecode=defaultSecondary Seasons=1 Ratings=[400,] normamps=400 emergamps=600 length=100 units=ft
New "Line.s_1001227-dc2" bus1=x_1001227.3 bus2=s2x_1001227.3 linecode=defaultSecondary Seasons=1 Ratings=[400,] normamps=400 emergamps=600 length=100 units=ft
New "Line.s_1001227-dc1" bus1=x_1001227.3 bus2=s1x_1001227.3 linecode=defaultSecondary Seasons=1 Ratings=[400,] normamps=400 emergamps=600 length=100 units=ft
New "Line.184245" bus1=189962.2 bus2=189950.2 length=87.96033 linecode=181 Seasons=1 Ratings=[400,] normamps=213 emergamps=234 units=m enabled=true phases=1
New "Line.s_1001216-db6" bus1=x_1001216.2 bus2=s6x_1001216.2 linecode=defaultSecondary Seasons=1 Ratings=[400,] normamps=400 emergamps=600 length=100 units=ft
New "Line.s_1001216-db5" bus1=x_1001216.2 bus2=s5x_1001216.2 linecode=defaultSecondary Seasons=1 Ratings=[400,] normamps=400 emergamps=600 length=100 units=ft
New "Line.s_1001216-db4" bus1=x_1001216.2 bus2=s4x_1001216.2 linecode=defaultSecondary Seasons=1 Ratings=[400,] normamps=400 emergamps=600 length=100 units=ft
New "Line.s_1001216-db3" bus1=x_1001216.2 bus2=s3x_1001216.2 linecode=defaultSecondary Seasons=1 Ratings=[400,] normamps=400 emergamps=600 length=100 units=ft
New "Line.s_1001216-db2" bus1=x_1001216.2 bus2=s2x_1001216.2 linecode=defaultSecondary Seasons=1 Ratings=[400,] normamps=400 emergamps=600 length=100 units=ft
New "Line.s_1001216-db1" bus1=x_1001216.2 bus2=s1x_1001216.2 linecode=defaultSecondary Seasons=1 Ratings=[400,] normamps=400 emergamps=600 length=100 units=ft
New "Line.184239" bus1=189950.2 bus2=189949.2 length=29.37011 linecode=181 Seasons=1 Ratings=[400,] normamps=213 emergamps=234 units=m enabled=true phases=1
New "Line.184240" bus1=189949.2 bus2=189948.2 length=20.30008 linecode=181 Seasons=1 Ratings=[400,] normamps=213 emergamps=234 units=m enabled=true phases=1
New "Line.s_1001214-db6" bus1=x_1001214.2 bus2=s6x_1001214.2 linecode=defaultSecondary Seasons=1 Ratings=[400,] normamps=400 emergamps=600 length=100 units=ft
New "Line.s_1001214-db5" bus1=x_1001214.2 bus2=s5x_1001214.2 linecode=defaultSecondary Seasons=1 Ratings=[400,] normamps=400 emergamps=600 length=100 units=ft
New "Line.s_1001214-db4" bus1=x_1001214.2 bus2=s4x_1001214.2 linecode=defaultSecondary Seasons=1 Ratings=[400,] normamps=400 emergamps=600 length=100 units=ft
New "Line.s_1001214-db3" bus1=x_1001214.2 bus2=s3x_1001214.2 linecode=defaultSecondary Seasons=1 Ratings=[400,] normamps=400 emergamps=600 length=100 units=ft
New "Line.s_1001214-db2" bus1=x_1001214.2 bus2=s2x_1001214.2 linecode=defaultSecondary Seasons=1 Ratings=[400,] normamps=400 emergamps=600 length=100 units=ft
New "Line.s_1001214-db1" bus1=x_1001214.2 bus2=s1x_1001214.2 linecode=defaultSecondary Seasons=1 Ratings=[400,] normamps=400 emergamps=600 length=100 units=ft
New "Line.184241" bus1=189948.2 bus2=194050.2 length=43.89016 linecode=181 Seasons=1 Ratings=[400,] normamps=213 emergamps=234 units=m enabled=true phases=1
New "Line.s_1001213-db8" bus1=x_1001213.2 bus2=s8x_1001213.2 linecode=defaultSecondary Seasons=1 Ratings=[400,] normamps=400 emergamps=600 length=100 units=ft
New "Line.s_1001213-db7" bus1=x_1001213.2 bus2=s7x_1001213.2 linecode=defaultSecondary Seasons=1 Ratings=[400,] normamps=400 emergamps=600 length=100 units=ft
New "Line.s_1001213-db6" bus1=x_1001213.2 bus2=s6x_1001213.2 linecode=defaultSecondary Seasons=1 Ratings=[400,] normamps=400 emergamps=600 length=100 units=ft
New "Line.s_1001213-db5" bus1=x_1001213.2 bus2=s5x_1001213.2 linecode=defaultSecondary Seasons=1 Ratings=[400,] normamps=400 emergamps=600 length=100 units=ft
New "Line.s_1001213-db4" bus1=x_1001213.2 bus2=s4x_1001213.2 linecode=defaultSecondary Seasons=1 Ratings=[400,] normamps=400 emergamps=600 length=100 units=ft
New "Line.s_1001213-db3" bus1=x_1001213.2 bus2=s3x_1001213.2 linecode=defaultSecondary Seasons=1 Ratings=[400,] normamps=400 emergamps=600 length=100 units=ft
New "Line.s_1001213-db2" bus1=x_1001213.2 bus2=s2x_1001213.2 linecode=defaultSecondary Seasons=1 Ratings=[400,] normamps=400 emergamps=600 length=100 units=ft
New "Line.s_1001213-db1" bus1=x_1001213.2 bus2=s1x_1001213.2 linecode=defaultSecondary Seasons=1 Ratings=[400,] normamps=400 emergamps=600 length=100 units=ft
New "Line.184244" bus1=189951.1 bus2=189962.1 length=57.46021 linecode=181 Seasons=1 Ratings=[400,] normamps=213 emergamps=234 units=m enabled=true phases=1
New "Line.s_1001217-da8" bus1=x_1001217.1 bus2=s8x_1001217.1 linecode=defaultSecondary Seasons=1 Ratings=[400,] normamps=400 emergamps=600 length=100 units=ft
New "Line.s_1001217-da7" bus1=x_1001217.1 bus2=s7x_1001217.1 linecode=defaultSecondary Seasons=1 Ratings=[400,] normamps=400 emergamps=600 length=100 units=ft
New "Line.s_1001217-da6" bus1=x_1001217.1 bus2=s6x_1001217.1 linecode=defaultSecondary Seasons=1 Ratings=[400,] normamps=400 emergamps=600 length=100 units=ft
New "Line.s_1001217-da5" bus1=x_1001217.1 bus2=s5x_1001217.1 linecode=defaultSecondary Seasons=1 Ratings=[400,] normamps=400 emergamps=600 length=100 units=ft
New "Line.s_1001217-da4" bus1=x_1001217.1 bus2=s4x_1001217.1 linecode=defaultSecondary Seasons=1 Ratings=[400,] normamps=400 emergamps=600 length=100 units=ft
New "Line.s_1001217-da3" bus1=x_1001217.1 bus2=s3x_1001217.1 linecode=defaultSecondary Seasons=1 Ratings=[400,] normamps=400 emergamps=600 length=100 units=ft
New "Line.s_1001217-da2" bus1=x_1001217.1 bus2=s2x_1001217.1 linecode=defaultSecondary Seasons=1 Ratings=[400,] normamps=400 emergamps=600 length=100 units=ft
New "Line.s_1001217-da1" bus1=x_1001217.1 bus2=s1x_1001217.1 linecode=defaultSecondary Seasons=1 Ratings=[400,] normamps=400 emergamps=600 length=100 units=ft
New "Line.184242" bus1=189951.1 bus2=194048.1 length=57.49022 linecode=181 Seasons=1 Ratings=[400,] normamps=213 emergamps=234 units=m enabled=true phases=1
New "Line.s_1001218-da6" bus1=x_1001218.1 bus2=s6x_1001218.1 linecode=defaultSecondary Seasons=1 Ratings=[400,] normamps=400 emergamps=600 length=100 units=ft
New "Line.s_1001218-da5" bus1=x_1001218.1 bus2=s5x_1001218.1 linecode=defaultSecondary Seasons=1 Ratings=[400,] normamps=400 emergamps=600 length=100 units=ft
New "Line.s_1001218-da4" bus1=x_1001218.1 bus2=s4x_1001218.1 linecode=defaultSecondary Seasons=1 Ratings=[400,] normamps=400 emergamps=600 length=100 units=ft
New "Line.s_1001218-da3" bus1=x_1001218.1 bus2=s3x_1001218.1 linecode=defaultSecondary Seasons=1 Ratings=[400,] normamps=400 emergamps=600 length=100 units=ft
New "Line.s_1001218-da2" bus1=x_1001218.1 bus2=s2x_1001218.1 linecode=defaultSecondary Seasons=1 Ratings=[400,] normamps=400 emergamps=600 length=100 units=ft
New "Line.s_1001218-da1" bus1=x_1001218.1 bus2=s1x_1001218.1 linecode=defaultSecondary Seasons=1 Ratings=[400,] normamps=400 emergamps=600 length=100 units=ft
New "Line.184243" bus1=194048.1 bus2=194049.1 length=51.58019 linecode=181 Seasons=1 Ratings=[400,] normamps=213 emergamps=234 units=m enabled=true phases=1
New "Line.s_1001220-da5" bus1=x_1001220.1 bus2=s5x_1001220.1 linecode=defaultSecondary Seasons=1 Ratings=[400,] normamps=400 emergamps=600 length=100 units=ft
New "Line.s_1001220-da4" bus1=x_1001220.1 bus2=s4x_1001220.1 linecode=defaultSecondary Seasons=1 Ratings=[400,] normamps=400 emergamps=600 length=100 units=ft
New "Line.s_1001220-da3" bus1=x_1001220.1 bus2=s3x_1001220.1 linecode=defaultSecondary Seasons=1 Ratings=[400,] normamps=400 emergamps=600 length=100 units=ft