New "Load.1007732-da1" phases=1 bus1=s1x_1007732.1 kV=0.24 kW=7.9965 pf=0.9 status=variable model=4 CVRwatts=0.8 CVRvars=3 class=1 yearly=25607_A conn=wye xfkVA=25 allocationfactor=0.3554
New "Load.1007732-db1" phases=1 bus1=s1x_1007732.2 kV=0.24 kW=8.36325 pf=0.9 status=variable model=4 CVRwatts=0.8 CVRvars=3 class=1 yearly=25607_B conn=wye xfkVA=25 allocationfactor=0.3717
New "Load.1007732-dc1" phases=1 bus1=s1x_1007732.3 kV=0.24 kW=8.59275 pf=0.9 status=variable model=4 CVRwatts=0.8 CVRvars=3 class=1 yearly=25607_C conn=wye xfkVA=25 allocationfactor=0.3819
New "Load.1003134-d3" phases=3 bus1=s3x_1003134 kV=0.208 kW=16.632 pf=0.9 status=variable model=4 CVRwatts=0.8 CVRvars=3 class=1 yearly=25607 conn=wye xfkVA=50 allocationfactor=0.3696
New "Load.1003134-d2" phases=3 bus1=s2x_1003134 kV=0.208 kW=16.632 pf=0.9 status=variable model=4 CVRwatts=0.8 CVRvars=3 class=1 yearly=25607 conn=wye xfkVA=50 allocationfactor=0.3696
New "Load.1003134-d1" phases=3 bus1=s1x_1003134 kV=0.208 kW=16.632 pf=0.9 status=variable model=4 CVRwatts=0.8 CVRvars=3 class=1 yearly=25607 conn=wye xfkVA=50 allocationfactor=0.3696
New "Load.1003127-db1" phases=1 bus1=s1x_1003127.2 kV=0.24 kW=3.3453 pf=0.9 status=variable model=4 CVRwatts=0.8 CVRvars=3 class=1 yearly=25607_B conn=wye xfkVA=10 allocationfactor=0.3717
New "Load.1001708-d3" phases=3 bus1=s3x_1001708 kV=0.208 kW=83.16 pf=0.9 status=variable model=4 CVRwatts=0.8 CVRvars=3 class=1 yearly=25607 conn=wye xfkVA=250 allocationfactor=0.3696
New "Load.1001708-d2" phases=3 bus1=s2x_1001708 kV=0.208 kW=83.16 pf=0.9 status=variable model=4 CVRwatts=0.8 CVRvars=3 class=1 yearly=25607 conn=wye xfkVA=250 allocationfactor=0.3696
New "Load.1001708-d1" phases=3 bus1=s1x_1001708 kV=0.208 kW=83.16 pf=0.9 status=variable model=4 CVRwatts=0.8 CVRvars=3 class=1 yearly=25607 conn=wye xfkVA=250 allocationfactor=0.3696
New "Load.1001345-d3" phases=3 bus1=s3x_1001345 kV=0.208 kW=16.632 pf=0.9 status=variable model=4 CVRwatts=0.8 CVRvars=3 class=1 yearly=25607 conn=wye xfkVA=50 allocationfactor=0.3696
New "Load.1001345-d2" phases=3 bus1=s2x_1001345 kV=0.208 kW=16.632 pf=0.9 status=variable model=4 CVRwatts=0.8 CVRvars=3 class=1 yearly=25607 conn=wye xfkVA=50 allocationfactor=0.3696
New "Load.1001345-d1" phases=3 bus1=s1x_1001345 kV=0.208 kW=16.632 pf=0.9 status=variable model=4 CVRwatts=0.8 CVRvars=3 class=1 yearly=25607 conn=wye xfkVA=50 allocationfactor=0.3696
New "Load.1000933-d15" phases=3 bus1=s15x_1000933 kV=0.208 kW=3.3264 pf=0.9 status=variable model=4 CVRwatts=0.8 CVRvars=3 class=1 yearly=25607 conn=wye xfkVA=10 allocationfactor=0.3696
New "Load.1000933-d14" phases=3 bus1=s14x_1000933 kV=0.208 kW=3.3264 pf=0.9 status=variable model=4 CVRwatts=0.8 CVRvars=3 class=1 yearly=25607 conn=wye xfkVA=10 allocationfactor=0.3696
New "Load.1000933-d13" phases=3 bus1=s13x_1000933 kV=0.208 kW=3.3264 pf=0.9 status=variable model=4 CVRwatts=0.8 CVRvars=3 class=1 yearly=25607 conn=wye xfkVA=10 allocationfactor=0.3696
New "Load.1000933-d12" phases=3 bus1=s12x_1000933 kV=0.208 kW=3.3264 pf=0.9 status=variable model=4 CVRwatts=0.8 CVRvars=3 class=1 yearly=25607 conn=wye xfkVA=10 allocationfactor=0.3696
New "Load.1000933-d11" phases=3 bus1=s11x_1000933 kV=0.208 kW=3.3264 pf=0.9 status=variable model=4 CVRwatts=0.8 CVRvars=3 class=1 yearly=25607 conn=wye xfkVA=10 allocationfactor=0.3696
New "Load.1000933-d10" phases=3 bus1=s10x_1000933 kV=0.208 kW=3.3264 pf=0.9 status=variable model=4 CVRwatts=0.8 CVRvars=3 class=1 yearly=25607 conn=wye xfkVA=10 allocationfactor=0.3696
New "Load.1000933-d9" phases=3 bus1=s9x_1000933 kV=0.208 kW=3.3264 pf=0.9 status=variable model=4 CVRwatts=0.8 CVRvars=3 class=1 yearly=25607 conn=wye xfkVA=10 allocationfactor=0.3696
New "Load.1000933-d8" phases=3 bus1=s8x_1000933 kV=0.208 kW=3.3264 pf=0.9 status=variable model=4 CVRwatts=0.8 CVRvars=3 class=1 yearly=25607 conn=wye xfkVA=10 allocationfactor=0.3696
New "Load.1000933-d7" phases=3 bus1=s7x_1000933 kV=0.208 kW=3.3264 pf=0.9 status=variable model=4 CVRwatts=0.8 CVRvars=3 class=1 yearly=25607 conn=wye xfkVA=10 allocationfactor=0.3696
New "Load.1000933-d6" phases=3 bus1=s6x_1000933 kV=0.208 kW=3.3264 pf=0.9 status=variable model=4 CVRwatts=0.8 CVRvars=3 class=1 yearly=25607 conn=wye xfkVA=10 allocationfactor=0.3696
New "Load.1000933-d5" phases=3 bus1=s5x_1000933 kV=0.208 kW=3.3264 pf=0.9 status=variable model=4 CVRwatts=0.8 CVRvars=3 class=1 yearly=25607 conn=wye xfkVA=10 allocationfactor=0.3696
New "Load.1000933-d4" phases=3 bus1=s4x_1000933 kV=0.208 kW=3.3264 pf=0.9 status=variable model=4 CVRwatts=0.8 CVRvars=3 class=1 yearly=25607 conn=wye xfkVA=10 allocationfactor=0.3696
New "Load.1000933-d3" phases=3 bus1=s3x_1000933 kV=0.208 kW=3.3264 pf=0.9 status=variable model=4 CVRwatts=0.8 CVRvars=3 class=1 yearly=25607 conn=wye xfkVA=10 allocationfactor=0.3696
New "Load.1000933-d2" phases=3 bus1=s2x_1000933 kV=0.208 kW=3.3264 pf=0.9 status=variable model=4 CVRwatts=0.8 CVRvars=3 class=1 yearly=25607 conn=wye xfkVA=10 allocationfactor=0.3696
New "Load.1000933-d1" phases=3 bus1=s1x_1000933 kV=0.208 kW=3.3264 pf=0.9 status=variable model=4 CVRwatts=0.8 CVRvars=3 class=1 yearly=25607 conn=wye xfkVA=10 allocationfactor=0.3696
New "Load.1000042-da7" phases=1 bus1=s7x_1000042.1 kV=0.24 kW=4.5694272006 pf=0.9 status=variable model=4 CVRwatts=0.8 CVRvars=3 class=1 yearly=25607_A conn=wye xfkVA=14.28571 allocationfactor=0.3554
New "Load.1000042-da6" phases=1 bus1=s6x_1000042.1 kV=0.24 kW=4.5694272006 pf=0.9 status=variable model=4 CVRwatts=0.8 CVRvars=3 class=1 yearly=25607_A conn=wye xfkVA=14.28571 allocationfactor=0.3554
New "Load.1000042-da5" phases=1 bus1=s5x_1000042.1 kV=0.24 kW=4.5694272006 pf=0.9 status=variable model=4 CVRwatts=0.8 CVRvars=3 class=1 yearly=25607_A conn=wye xfkVA=14.28571 allocationfactor=0.3554
New "Load.1000042-da4" phases=1 bus1=s4x_1000042.1 kV=0.24 kW=4.5694272006 pf=0.9 status=variable model=4 CVRwatts=0.8 CVRvars=3 class=1 yearly=25607_A conn=wye xfkVA=14.28571 allocationfactor=0.3554
New "Load.1000042-da3" phases=1 bus1=s3x_1000042.1 kV=0.24 kW=4.5694272006 pf=0.9 status=variable model=4 CVRwatts=0.8 CVRvars=3 class=1 yearly=25607_A conn=wye xfkVA=14.28571 allocationfactor=0.3554
New "Load.1000042-da2" phases=1 bus1=s2x_1000042.1 kV=0.24 kW=4.5694272006 pf=0.9 status=variable model=4 CVRwatts=0.8 CVRvars=3 class=1 yearly=25607_A conn=wye xfkVA=14.28571 allocationfactor=0.3554
New "Load.1000042-da1" phases=1 bus1=s1x_1000042.1 kV=0.24 kW=4.5694272006 pf=0.9 status=variable model=4 CVRwatts=0.8 CVRvars=3 class=1 yearly=25607_A conn=wye xfkVA=14.28571 allocationfactor=0.3554
New "Load.1000077-da6" phases=1 bus1=s6x_1000077.1 kV=0.24 kW=2.66549989338 pf=0.9 status=variable model=4 CVRwatts=0.8 CVRvars=3 class=1 yearly=25607_A conn=wye xfkVA=8.333333 allocationfactor=0.3554
New "Load.1000077-da5" phases=1 bus1=s5x_1000077.1 kV=0.24 kW=2.66549989338 pf=0.9 status=variable model=4 CVRwatts=0.8 CVRvars=3 class=1 yearly=25607_A conn=wye xfkVA=8.333333 allocationfactor=0.3554
New "Load.1000077-da4" phases=1 bus1=s4x_1000077.1 kV=0.24 kW=2.66549989338 pf=0.9 status=variable model=4 CVRwatts=0.8 CVRvars=3 class=1 yearly=25607_A conn=wye xfkVA=8.333333 allocationfactor=0.3554
New "Load.1000077-da3" phases=1 bus1=s3x_1000077.1 kV=0.24 kW=2.66549989338 pf=0.9 status=variable model=4 CVRwatts=0.8 CVRvars=3 class=1 yearly=25607_A conn=wye xfkVA=8.333333 allocationfactor=0.3554
New "Load.1000077-da2" phases=1 bus1=s2x_1000077.1 kV=0.24 kW=2.66549989338 pf=0.9 status=variable model=4 CVRwatts=0.8 CVRvars=3 class=1 yearly=25607_A conn=wye xfkVA=8.333333 allocationfactor=0.3554
New "Load.1000077-da1" phases=1 bus1=s1x_1000077.1 kV=0.24 kW=2.66549989338 pf=0.9 status=variable model=4 CVRwatts=0.8 CVRvars=3 class=1 yearly=25607_A conn=wye xfkVA=8.333333 allocationfactor=0.3554
New "Load.1000043-da6" phases=1 bus1=s6x_1000043.1 kV=0.24 kW=2.66549989338 pf=0.9 status=variable model=4 CVRwatts=0.8 CVRvars=3 class=1 yearly=25607_A conn=wye xfkVA=8.333333 allocationfactor=0.3554
New "Load.1000043-da5" phases=1 bus1=s5x_1000043.1 kV=0.24 kW=2.66549989338 pf=0.9 status=variable model=4 CVRwatts=0.8 CVRvars=3 class=1 yearly=25607_A conn=wye xfkVA=8.333333 allocationfactor=0.3554
New "Load.1000043-da4" phases=1 bus1=s4x_1000043.1 kV=0.24 kW=2.66549989338 pf=0.9 status=variable model=4 CVRwatts=0.8 CVRvars=3 class=1 yearly=25607_A conn=wye xfkVA=8.333333 allocationfactor=0.3554
New "Load.1000043-da3" phases=1 bus1=s3x_1000043.1 kV=0.24 kW=2.66549989338 pf=0.9 status=variable model=4 CVRwatts=0.8 CVRvars=3 class=1 yearly=25607_A conn=wye xfkVA=8.333333 allocationfactor=0.3554
New "Load.1000043-da2" phases=1 bus1=s2x_1000043.1 kV=0.24 kW=2.66549989338 pf=0.9 status=variable model=4 CVRwatts=0.8 CVRvars=3 class=1 yearly=25607_A conn=wye xfkVA=8.333333 allocationfactor=0.3554
New "Load.1000043-da1" phases=1 bus1=s1x_1000043.1 kV=0.24 kW=2.66549989338 pf=0.9 status=variable model=4 CVRwatts=0.8 CVRvars=3 class=1 yearly=25607_A conn=wye xfkVA=8.333333 allocationfactor=0.3554
New "Load.1000474-da5" phases=1 bus1=s5x_1000474.1 kV=0.24 kW=3.1986 pf=0.9 status=variable model=4 CVRwatts=0.8 CVRvars=3 class=1 yearly=25607_A conn=wye xfkVA=10 allocationfactor=0.3554
New "Load.1000474-da4" phases=1 bus1=s4x_1000474.1 kV=0.24 kW=3.1986 pf=0.9 status=variable model=4 CVRwatts=0.8 CVRvars=3 class=1 yearly=25607_A conn=wye xfkVA=10 allocationfactor=0.3554
New "Load.1000474-da3" phases=1 bus1=s3x_1000474.1 kV=0.24 kW=3.1986 pf=0.9 status=variable model=4 CVRwatts=0.8 CVRvars=3 class=1 yearly=25607_A conn=wye xfkVA=10 allocationfactor=0.3554
New "Load.1000474-da2" phases=1 bus1=s2x_1000474.1 kV=0.24 kW=3.1986 pf=0.9 status=variable model=4 CVRwatts=0.8 CVRvars=3 class=1 yearly=25607_A conn=wye xfkVA=10 allocationfactor=0.3554
New "Load.1000474-da1" phases=1 bus1=s1x_1000474.1 kV=0.24 kW=3.1986 pf=0.9 status=variable model=4 CVRwatts=0.8 CVRvars=3 class=1 yearly=25607_A conn=wye xfkVA=10 allocationfactor=0.3554
New "Load.1003140-d3" phases=3 bus1=s3x_1003140 kV=0.208 kW=55.4411088 pf=0.9 status=variable model=4 CVRwatts=0.8 CVRvars=3 class=1 yearly=25607 conn=wye xfkVA=166.67 allocationfactor=0.3696
New "Load.1003140-d2" phases=3 bus1=s2x_1003140 kV=0.208 kW=55.4411088 pf=0.9 status=variable model=4 CVRwatts=0.8 CVRvars=3 class=1 yearly=25607 conn=wye xfkVA=166.67 allocationfactor=0.3696
New "Load.1003140-d1" phases=3 bus1=s1x_1003140 kV=0.208 kW=55.4411088 pf=0.9 status=variable model=4 CVRwatts=0.8 CVRvars=3 class=1 yearly=25607 conn=wye xfkVA=166.67 allocationfactor=0.3696
New "Load.1001223-da4" phases=1 bus1=s4x_1001223.1 kV=0.24 kW=7.9965 pf=0.9 status=variable model=4 CVRwatts=0.8 CVRvars=3 class=1 yearly=25607_A conn=wye xfkVA=25 allocationfactor=0.3554
New "Load.1001223-da3" phases=1 bus1=s3x_1001223.1 kV=0.24 kW=7.9965 pf=0.9 status=variable model=4 CVRwatts=0.8 CVRvars=3 class=1 yearly=25607_A conn=wye xfkVA=25 allocationfactor=0.3554
New "Load.1001223-da2" phases=1 bus1=s2x_1001223.1 kV=0.24 kW=7.9965 pf=0.9 status=variable model=4 CVRwatts=0.8 CVRvars=3 class=1 yearly=25607_A conn=wye xfkVA=25 allocationfactor=0.3554
New "Load.1001223-da1" phases=1 bus1=s1x_1001223.1 kV=0.24 kW=7.9965 pf=0.9 status=variable model=4 CVRwatts=0.8 CVRvars=3 class=1 yearly=25607_A conn=wye xfkVA=25 allocationfactor=0.3554
New "Load.1001222-da8" phases=1 bus1=s8x_1001222.1 kV=0.24 kW=3.99825 pf=0.9 status=variable model=4 CVRwatts=0.8 CVRvars=3 class=1 yearly=25607_A conn=wye xfkVA=12.5 allocationfactor=0.3554
New "Load.1001222-da7" phases=1 bus1=s7x_1001222.1 kV=0.24 kW=3.99825 pf=0.9 status=variable model=4 CVRwatts=0.8 CVRvars=3 class=1 yearly=25607_A conn=wye xfkVA=12.5 allocationfactor=0.3554
New "Load.1001222-da6" phases=1 bus1=s6x_1001222.1 kV=0.24 kW=3.99825 pf=0.9 status=variable model=4 CVRwatts=0.8 CVRvars=3 class=1 yearly=25607_A conn=wye xfkVA=12.5 allocationfactor=0.3554
New "Load.1001222-da5" phases=1 bus1=s5x_1001222.1 kV=0.24 kW=3.99825 pf=0.9 status=variable model=4 CVRwatts=0.8 CVRvars=3 class=1 yearly=25607_A conn=wye xfkVA=12.5 allocationfactor=0.3554
New "Load.1001222-da4" phases=1 bus1=s4x_1001222.1 kV=0.24 kW=3.99825 pf=0.9 status=variable model=4 CVRwatts=0.8 CVRvars=3 class=1 yearly=25607_A conn=wye xfkVA=12.5 allocationfactor=0.3554
New "Load.1001222-da3" phases=1 bus1=s3x_1001222.1 kV=0.24 kW=3.99825 pf=0.9 status=variable model=4 CVRwatts=0.8 CVRvars=3 class=1 yearly=25607_A conn=wye xfkVA=12.5 allocationfactor=0.3554
New "Load.1001222-da2" phases=1 bus1=s2x_1001222.1 kV=0.24 kW=3.99825 pf=0.9 status=variable model=4 CVRwatts=0.8 CVRvars=3 class=1 yearly=25607_A conn=wye xfkVA=12.5 allocationfactor=0.3554
New "Load.1001222-da1" phases=1 bus1=s1x_1001222.1 kV=0.24 kW=3.99825 pf=0.9 status=variable model=4 CVRwatts=0.8 CVRvars=3 class=1 yearly=25607_A conn=wye xfkVA=12.5 allocationfactor=0.3554
New "Load.1001221-da1" phases=1 bus1=s1x_1001221.1 kV=0.24 kW=31.986 pf=0.9 status=variable model=4 CVRwatts=0.8 CVRvars=3 class=1 yearly=25607_A conn=wye xfkVA=100 allocationfactor=0.3554
New "Load.1001219-da2" phases=1 bus1=s2x_1001219.1 kV=0.24 kW=11.99475 pf=0.9 status=variable model=4 CVRwatts=0.8 CVRvars=3 class=1 yearly=25607_A conn=wye xfkVA=37.5 allocationfactor=0.3554
New "Load.1001219-da1" phases=1 bus1=s1x_1001219.1 kV=0.24 kW=11.99475 pf=0.9 status=variable model=4 CVRwatts=0.8 CVRvars=3 class=1 yearly=25607_A conn=wye xfkVA=37.5 allocationfactor=0.3554
New "Load.1001224-dc7" phases=1 bus1=s7x_1001224.3 kV=0.24 kW=4.9101413841 pf=0.9 status=variable model=4 CVRwatts=0.8 CVRvars=3 class=1 yearly=25607_C conn=wye xfkVA=14.28571 allocationfactor=0.3819
New "Load.1001224-dc6" phases=1 bus1=s6x_1001224.3 kV=0.24 kW=4.9101413841 pf=0.9 status=variable model=4 CVRwatts=0.8 CVRvars=3 class=1 yearly=25607_C conn=wye xfkVA=14.28571 allocationfactor=0.3819
New "Load.1001224-dc5" phases=1 bus1=s5x_1001224.3 kV=0.24 kW=4.9101413841 pf=0.9 status=variable model=4 CVRwatts=0.8 CVRvars=3 class=1 yearly=25607_C conn=wye xfkVA=14.28571 allocationfactor=0.3819
New "Load.1001224-dc4" phases=1 bus1=s4x_1001224.3 kV=0.24 kW=4.9101413841 pf=0.9 status=variable model=4 CVRwatts=0.8 CVRvars=3 class=1 yearly=25607_C conn=wye xfkVA=14.28571 allocationfactor=0.3819
New "Load.1001224-dc3" phases=1 bus1=s3x_1001224.3 kV=0.24 kW=4.9101413841 pf=0.9 status=variable model=4 CVRwatts=0.8 CVRvars=3 class=1 yearly=25607_C conn=wye xfkVA=14.28571 allocationfactor=0.3819
New "Load.1001224-dc2" phases=1 bus1=s2x_1001224.3 kV=0.24 kW=4.9101413841 pf=0.9 status=variable model=4 CVRwatts=0.8 CVRvars=3 class=1 yearly=25607_C conn=wye xfkVA=14.28571 allocationfactor=0.3819
New "Load.1001224-dc1" phases=1 bus1=s1x_1001224.3 kV=0.24 kW=4.9101413841 pf=0.9 status=variable model=4 CVRwatts=0.8 CVRvars=3 class=1 yearly=25607_C conn=wye xfkVA=14.28571 allocationfactor=0.3819
New "Load.1001225-dc5" phases=1 bus1=s5x_1001225.3 kV=0.24 kW=6.8742 pf=0.9 status=variable model=4 CVRwatts=0.8 CVRvars=3 class=1 yearly=25607_C conn=wye xfkVA=20 allocationfactor=0.3819
New "Load.1001225-dc4" phases=1 bus1=s4x_1001225.3 kV=0.24 kW=6.8742 pf=0.9 status=variable model=4 CVRwatts=0.8 CVRvars=3 class=1 yearly=25607_C conn=wye xfkVA=20 allocationfactor=0.3819
New "Load.1001225-dc3" phases=1 bus1=s3x_1001225.3 kV=0.24 kW=6.8742 pf=0.9 status=variable model=4 CVRwatts=0.8 CVRvars=3 class=1 yearly=25607_C conn=wye xfkVA=20 allocationfactor=0.3819
New "Load.1001225-dc2" phases=1 bus1=s2x_1001225.3 kV=0.24 kW=6.8742 pf=0.9 status=variable model=4 CVRwatts=0.8 CVRvars=3 class=1 yearly=25607_C conn=wye xfkVA=20 allocationfactor=0.3819
New "Load.1001225-dc1" phases=1 bus1=s1x_1001225.3 kV=0.24 kW=6.8742 pf=0.9 status=variable model=4 CVRwatts=0.8 CVRvars=3 class=1 yearly=25607_C conn=wye xfkVA=20 allocationfactor=0.3819
New "Load.1001226-dc4" phases=1 bus1=s4x_1001226.3 kV=0.24 kW=8.59275 pf=0.9 status=variable model=4 CVRwatts=0.8 CVRvars=3 class=1 yearly=25607_C conn=wye xfkVA=25 allocationfactor=0.3819
New "Load.1001226-dc3" phases=1 bus1=s3x_1001226.3 kV=0.24 kW=8.59275 pf=0.9 status=variable model=4 CVRwatts=0.8 CVRvars=3 class=1 yearly=25607_C conn=wye xfkVA=25 allocationfactor=0.3819
New "Load.1001226-dc2" phases=1 bus1=s2x_1001226.3 kV=0.24 kW=8.59275 pf=0.9 status=variable model=4 CVRwatts=0.8 CVRvars=3 class=1 yearly=25607_C conn=wye xfkVA=25 allocationfactor=0.3819
New "Load.1001226-dc1" phases=1 bus1=s1x_1001226.3 kV=0.24 kW=8.59275 pf=0.9 status=variable model=4 CVRwatts=0.8 CVRvars=3 class=1 yearly=25607_C conn=wye xfkVA=25 allocationfactor=0.3819
New "Load.1001227-dc5" phases=1 bus1=s5x_1001227.3 kV=0.24 kW=6.8742 pf=0.9 status=variable model=4 CVRwatts=0.8 CVRvars=3 class=1 yearly=25607_C conn=wye xfkVA=20 allocationfactor=0.3819
New "Load.1001227-dc4" phases=1 bus1=s4x_1001227.3 kV=0.24 kW=6.8742 pf=0.9 status=variable model=4 CVRwatts=0.8 CVRvars=3 class=1 yearly=25607_C conn=wye xfkVA=20 allocationfactor=0.3819
New "Load.1001227-dc3" phases=1 bus1=s3x_1001227.3 kV=0.24 kW=6.8742 pf=0.9 status=variable model=4 CVRwatts=0.8 CVRvars=3 class=1 yearly=25607_C conn=wye xfkVA=20 allocationfactor=0.3819
New "Load.1001227-dc2" phases=1 bus1=s2x_1001227.3 kV=0.24 kW=6.8742 pf=0.9 status=variable model=4 CVRwatts=0.8 CVRvars=3 class=1 yearly=25607_C conn=wye xfkVA=20 allocationfactor=0.3819
New "Load.1001227-dc1" phases=1 bus1=s1x_1001227.3 kV=0.24 kW=6.8742 pf=0.9 status=variable model=4 CVRwatts=0.8 CVRvars=3 class=1 yearly=25607_C conn=wye xfkVA=20 allocationfactor=0.3819
New "Load.1001216-db6" phases=1 bus1=s6x_1001216.2 kV=0.24 kW=5.5755011151 pf=0.9 status=variable model=4 CVRwatts=0.8 CVRvars=3 class=1 yearly=25607_B conn=wye xfkVA=16.66667 allocationfactor=0.3717
New "Load.1001216-db5" phases=1 bus1=s5x_1001216.2 kV=0.24 kW=5.5755011151 pf=0.9 status=variable model=4 CVRwatts=0.8 CVRvars=3 class=1 yearly=25607_B conn=wye xfkVA=16.66667 allocationfactor=0.3717
New "Load.1001216-db4" phases=1 bus1=s4x_1001216.2 kV=0.24 kW=5.5755011151 pf=0.9 status=variable model=4 CVRwatts=0.8 CVRvars=3 class=1 yearly=25607_B conn=wye xfkVA=16.66667 allocationfactor=0.3717
New "Load.1001216-db3" phases=1 bus1=s3x_1001216.2 kV=0.24 kW=5.5755011151 pf=0.9 status=variable model=4 CVRwatts=0.8 CVRvars=3 class=1 yearly=25607_B conn=wye xfkVA=16.66667 allocationfactor=0.3717
New "Load.1001216-db2" phases=1 bus1=s2x_1001216.2 kV=0.24 kW=5.5755011151 pf=0.9 status=variable model=4 CVRwatts=0.8 CVRvars=3 class=1 yearly=25607_B conn=wye xfkVA=16.66667 allocationfactor=0.3717
New "Load.1001216-db1" phases=1 bus1=s1x_1001216.2 kV=0.24 kW=5.5755011151 pf=0.9 status=variable model=4 CVRwatts=0.8 CVRvars=3 class=1 yearly=25607_B conn=wye xfkVA=16.66667 allocationfactor=0.3717
New "Load.1001214-db6" phases=1 bus1=s6x_1001214.2 kV=0.24 kW=5.5755011151 pf=0.9 status=variable model=4 CVRwatts=0.8 CVRvars=3 class=1 yearly=25607_B conn=wye xfkVA=16.66667 allocationfactor=0.3717
New "Load.1001214-db5" phases=1 bus1=s5x_1001214.2 kV=0.24 kW=5.5755011151 pf=0.9 status=variable model=4 CVRwatts=0.8 CVRvars=3 class=1 yearly=25607_B conn=wye xfkVA=16.66667 allocationfactor=0.3717
New "Load.1001214-db4" phases=1 bus1=s4x_1001214.2 kV=0.24 kW=5.5755011151 pf=0.9 status=variable model=4 CVRwatts=0.8 CVRvars=3 class=1 yearly=25607_B conn=wye xfkVA=16.66667 allocationfactor=0.3717
New "Load.1001214-db3" phases=1 bus1=s3x_1001214.2 kV=0.24 kW=5.5755011151 pf=0.9 status=variable model=4 CVRwatts=0.8 CVRvars=3 class=1 yearly=25607_B conn=wye xfkVA=16.66667 allocationfactor=0.3717
New "Load.1001214-db2" phases=1 bus1=s2x_1001214.2 kV=0.24 kW=5.5755011151 pf=0.9 status=variable model=4 CVRwatts=0.8 CVRvars=3 class=1 yearly=25607_B conn=wye xfkVA=16.66667 allocationfactor=0.3717
New "Load.1001214-db1" phases=1 bus1=s1x_1001214.2 kV=0.24 kW=5.5755011151 pf=0.9 status=variable model=4 CVRwatts=0.8 CVRvars=3 class=1 yearly=25607_B conn=wye xfkVA=16.66667 allocationfactor=0.3717
New "Load.1001213-db8" phases=1 bus1=s8x_1001213.2 kV=0.24 kW=3.13621875 pf=0.9 status=variable model=4 CVRwatts=0.8 CVRvars=3 class=1 yearly=25607_B conn=wye xfkVA=9.375 allocationfactor=0.3717
New "Load.1001213-db7" phases=1 bus1=s7x_1001213.2 kV=0.24 kW=3.13621875 pf=0.9 status=variable model=4 CVRwatts=0.8 CVRvars=3 class=1 yearly=25607_B conn=wye xfkVA=9.375 allocationfactor=0.3717
New "Load.1001213-db6" phases=1 bus1=s6x_1001213.2 kV=0.24 kW=3.13621875 pf=0.9 status=variable model=4 CVRwatts=0.8 CVRvars=3 class=1 yearly=25607_B conn=wye xfkVA=9.375 allocationfactor=0.3717
New "Load.1001213-db5" phases=1 bus1=s5x_1001213.2 kV=0.24 kW=3.13621875 pf=0.9 status=variable model=4 CVRwatts=0.8 CVRvars=3 class=1 yearly=25607_B conn=wye xfkVA=9.375 allocationfactor=0.3717
New "Load.1001213-db4" phases=1 bus1=s4x_1001213.2 kV=0.24 kW=3.13621875 pf=0.9 status=variable model=4 CVRwatts=0.8 CVRvars=3 class=1 yearly=25607_B conn=wye xfkVA=9.375 allocationfactor=0.3717
New "Load.1001213-db3" phases=1 bus1=s3x_1001213.2 kV=0.24 kW=3.13621875 pf=0.9 status=variable model=4 CVRwatts=0.8 CVRvars=3 class=1 yearly=25607_B conn=wye xfkVA=9.375 allocationfactor=0.3717
New "Load.1001213-db2" phases=1 bus1=s2x_1001213.2 kV=0.24 kW=3.13621875 pf=0.9 status=variable model=4 CVRwatts=0.8 CVRvars=3 class=1 yearly=25607_B conn=wye xfkVA=9.375 allocationfactor=0.3717
New "Load.1001213-db1" phases=1 bus1=s1x_1001213.2 kV=0.24 kW=3.13621875 pf=0.9 status=variable model=4 CVRwatts=0.8 CVRvars=3 class=1 yearly=25607_B conn=wye xfkVA=9.375 allocationfactor=0.3717
New "Load.1001217-da8" phases=1 bus1=s8x_1001217.1 kV=0.24 kW=3.99825 pf=0.9 status=variable model=4 CVRwatts=0.8 CVRvars=3 class=1 yearly=25607_A conn=wye xfkVA=12.5 allocationfactor=0.3554
New "Load.1001217-da7" phases=1 bus1=s7x_1001217.1 kV=0.24 kW=3.99825 pf=0.9 status=variable model=4 CVRwatts=0.8 CVRvars=3 class=1 yearly=25607_A conn=wye xfkVA=12.5 allocationfactor=0.3554
New "Load.1001217-da6" phases=1 bus1=s6x_1001217.1 kV=0.24 kW=3.99825 pf=0.9 status=variable model=4 CVRwatts=0.8 CVRvars=3 class=1 yearly=25607_A conn=wye xfkVA=12.5 allocationfactor=0.3554
New "Load.1001217-da5" phases=1 bus1=s5x_1001217.1 kV=0.24 kW=3.99825 pf=0.9 status=variable model=4 CVRwatts=0.8 CVRvars=3 class=1 yearly=25607_A conn=wye xfkVA=12.5 allocationfactor=0.3554
New "Load.1001217-da4" phases=1 bus1=s4x_1001217.1 kV=0.24 kW=3.99825 pf=0.9 status=variable model=4 CVRwatts=0.8 CVRvars=3 class=1 yearly=25607_A conn=wye xfkVA=12.5 allocationfactor=0.3554
New "Load.1001217-da3" phases=1 bus1=s3x_1001217.1 kV=0.24 kW=3.99825 pf=0.9 status=variable model=4 CVRwatts=0.8 CVRvars=3 class=1 yearly=25607_A conn=wye xfkVA=12.5 allocationfactor=0.3554
New "Load.1001217-da2" phases=1 bus1=s2x_1001217.1 kV=0.24 kW=3.99825 pf=0.9 status=variable model=4 CVRwatts=0.8 CVRvars=3 class=1 yearly=25607_A conn=wye xfkVA=12.5 allocationfactor=0.3554
New "Load.1001217-da1" phases=1 bus1=s1x_1001217.1 kV=0.24 kW=3.99825 pf=0.9 status=variable model=4 CVRwatts=0.8 CVRvars=3 class=1 yearly=25607_A conn=wye xfkVA=12.5 allocationfactor=0.3554
New "Load.1001218-da6" phases=1 bus1=s6x_1001218.1 kV=0.24 kW=5.3310010662 pf=0.9 status=variable model=4 CVRwatts=0.8 CVRvars=3 class=1 yearly=25607_A conn=wye xfkVA=16.66667 allocationfactor=0.3554
New "Load.1001218-da5" phases=1 bus1=s5x_1001218.1 kV=0.24 kW=5.3310010662 pf=0.9 status=variable model=4 CVRwatts=0.8 CVRvars=3 class=1 yearly=25607_A conn=wye xfkVA=16.66667 allocationfactor=0.3554
New "Load.1001218-da4" phases=1 bus1=s4x_1001218.1 kV=0.24 kW=5.3310010662 pf=0.9 status=variable model=4 CVRwatts=0.8 CVRvars=3 class=1 yearly=25607_A conn=wye xfkVA=16.66667 allocationfactor=0.3554
New "Load.1001218-da3" phases=1 bus1=s3x_1001218.1 kV=0.24 kW=5.3310010662 pf=0.9 status=variable model=4 CVRwatts=0.8 CVRvars=3 class=1 yearly=25607_A conn=wye xfkVA=16.66667 allocationfactor=0.3554
New "Load.1001218-da2" phases=1 bus1=s2x_1001218.1 kV=0.24 kW=5.3310010662 pf=0.9 status=variable model=4 CVRwatts=0.8 CVRvars=3 class=1 yearly=25607_A conn=wye xfkVA=16.66667 allocationfactor=0.3554
New "Load.1001218-da1" phases=1 bus1=s1x_1001218.1 kV=0.24 kW=5.3310010662 pf=0.9 status=variable model=4 CVRwatts=0.8 CVRvars=3 class=1 yearly=25607_A conn=wye xfkVA=16.66667 allocationfactor=0.3554
New "Load.1001220-da5" phases=1 bus1=s5x_1001220.1 kV=0.24 kW=6.3972 pf=0.9 status=variable model=4 CVRwatts=0.8 CVRvars=3 class=1 yearly=25607_A conn=wye xfkVA=20 allocationfactor=0.3554
New "Load.1001220-da4" phases=1 bus1=s4x_1001220.1 kV=0.24 kW=6.3972 pf=0.9 status=variable model=4 CVRwatts=0.8 CVRvars=3 class=1 yearly=25607_A conn=wye xfkVA=20 allocationfactor=0.3554
New "Load.1001220-da3" phases=1 bus1=s3x_1001220.1 kV=0.24 kW=6.3972 pf=0.9 status=variable model=4 CVRwatts=0.8 CVRvars=3 class=1 yearly=25607_A conn=wye xfkVA=20 allocationfactor=0.3554
New "Load.1001220-da2" phases=1 bus1=s2x_1001220.1 kV=0.24 kW=6.3972 pf=0.9 status=variable model=4 CVRwatts=0.8 CVRvars=3 class=1 yearly=25607_A conn=wye xfkVA=20 allocationfactor=0.3554
New "Load.1001220-da1" phases=1 bus1=s1x_1001220.1 kV=0.24 kW=6.3972 pf=0.9 status=variable model=4 CVRwatts=0.8 CVRvars=3 class=1 yearly=25607_A conn=wye xfkVA=20 allocationfactor=0.3554
New "Load.1001228-db8" phases=1 bus1=s8x_1001228.2 kV=0.24 kW=4.181625 pf=0.9 status=variable model=4 CVRwatts=0.8 CVRvars=3 class=1 yearly=25607_B conn=wye xfkVA=12.5 allocationfactor=0.3717
New "Load.1001228-db7" phases=1 bus1=s7x_1001228.2 kV=0.24 kW=4.181625 pf=0.9 status=variable model=4 CVRwatts=0.8 CVRvars=3 class=1 yearly=25607_B conn=wye xfkVA=12.5 allocationfactor=0.3717
New "Load.1001228-db6" phases=1 bus1=s6x_1001228.2 kV=0.24 kW=4.181625 pf=0.9 status=variable model=4 CVRwatts=0.8 CVRvars=3 class=1 yearly=25607_B conn=wye xfkVA=12.5 allocationfactor=0.3717
New "Load.1001228-db5" phases=1 bus1=s5x_1001228.2 kV=0.24 kW=4.181625 pf=0.9 status=variable model=4 CVRwatts=0.8 CVRvars=3 class=1 yearly=25607_B conn=wye xfkVA=12.5 allocationfactor=0.3717
New "Load.1001228-db4" phases=1 bus1=s4x_1001228.2 kV=0.24 kW=4.181625 pf=0.9 status=variable model=4 CVRwatts=0.8 CVRvars=3 class=1 yearly=25607_B conn=wye xfkVA=12.5 allocationfactor=0.3717
New "Load.1001228-db3" phases=1 bus1=s3x_1001228.2 kV=0.24 kW=4.181625 pf=0.9 status=variable model=4 CVRwatts=0.8 CVRvars=3 class=1 yearly=25607_B conn=wye xfkVA=12.5 allocationfactor=0.3717
New "Load.1001228-db2" phases=1 bus1=s2x_1001228.2 kV=0.24 kW=4.181625 pf=0.9 status=variable model=4 CVRwatts=0.8 CVRvars=3 class=1 yearly=25607_B conn=wye xfkVA=12.5 allocationfactor=0.3717
New "Load.1001228-db1" phases=1 bus1=s1x_1001228.2 kV=0.24 kW=4.181625 pf=0.9 status=variable model=4 CVRwatts=0.8 CVRvars=3 class=1 yearly=25607_B conn=wye xfkVA=12.5 allocationfactor=0.3717
New "Load.1001229-db10" phases=1 bus1=s10x_1001229.2 kV=0.24 kW=3.3453 pf=0.9 status=variable model=4 CVRwatts=0.8 CVRvars=3 class=1 yearly=25607_B conn=wye xfkVA=10 allocationfactor=0.3717
New "Load.1001229-db9" phases=1 bus1=s9x_1001229.2 kV=0.24 kW=3.3453 pf=0.9 status=variable model=4 CVRwatts=0.8 CVRvars=3 class=1 yearly=25607_B conn=wye xfkVA=10 allocationfactor=0.3717
New "Load.1001229-db8" phases=1 bus1=s8x_1001229.2 kV=0.24 kW=3.3453 pf=0.9 status=variable model=4 CVRwatts=0.8 CVRvars=3 class=1 yearly=25607_B conn=wye xfkVA=10 allocationfactor=0.3717
New "Load.1001229-db7" phases=1 bus1=s7x_1001229.2 kV=0.24 kW=3.3453 pf=0.9 status=variable model=4 CVRwatts=0.8 CVRvars=3 class=1 yearly=25607_B conn=wye xfkVA=10 allocationfactor=0.3717
New "Load.1001229-db6" phases=1 bus1=s6x_1001229.2 kV=0.24 kW=3.3453 pf=0.9 status=variable model=4 CVRwatts=0.8 CVRvars=3 class=1 yearly=25607_B conn=wye xfkVA=10 allocationfactor=0.3717
New "Load.1001229-db5" phases=1 bus1=s5x_1001229.2 kV=0.24 kW=3.3453 pf=0.9 status=variable model=4 CVRwatts=0.8 CVRvars=3 class=1 yearly=25607_B conn=wye xfkVA=10 allocationfactor=0.3717
New "Load.1001229-db4" phases=1 bus1=s4x_1001229.2 kV=0.24 kW=3.3453 pf=0.9 status=variable model=4 CVRwatts=0.8 CVRvars=3 class=1 yearly=25607_B conn=wye xfkVA=10 allocationfactor=0.3717
New "Load.1001229-db3" phases=1 bus1=s3x_1001229.2 kV=0.24 kW=3.3453 pf=0.9 status=variable model=4 CVRwatts=0.8 CVRvars=3 class=1 yearly=25607_B conn=wye xfkVA=10 allocationfactor=0.3717
New "Load.1001229-db2" phases=1 bus1=s2x_1001229.2 kV=0.24 kW=3.3453 pf=0.9 status=variable model=4 CVRwatts=0.8 CVRvars=3 class=1 yearly=25607_B conn=wye xfkVA=10 allocationfactor=0.3717
New "Load.1001229-db1" phases=1 bus1=s1x_1001229.2 kV=0.24 kW=3.3453 pf=0.9 status=variable model=4 CVRwatts=0.8 CVRvars=3 class=1 yearly=25607_B conn=wye xfkVA=10 allocationfactor=0.3717
New "Load.1001230-db9" phases=1 bus1=s9x_1001230.2 kV=0.24 kW=3.7169996283 pf=0.9 status=variable model=4 CVRwatts=0.8 CVRvars=3 class=1 yearly=25607_B conn=wye xfkVA=11.11111 allocationfactor=0.3717
New "Load.1001230-db8" phases=1 bus1=s8x_1001230.2 kV=0.24 kW=3.7169996283 pf=0.9 status=variable model=4 CVRwatts=0.8 CVRvars=3 class=1 yearly=25607_B conn=wye xfkVA=11.11111 allocationfactor=0.3717
New "Load.1001230-db7" phases=1 bus1=s7x_1001230.2 kV=0.24 kW=3.7169996283 pf=0.9 status=variable model=4 CVRwatts=0.8 CVRvars=3 class=1 yearly=25607_B conn=wye xfkVA=11.11111 allocationfactor=0.3717
New "Load.1001230-db6" phases=1 bus1=s6x_1001230.2 kV=0.24 kW=3.7169996283 pf=0.9 status=variable model=4 CVRwatts=0.8 CVRvars=3 class=1 yearly=25607_B conn=wye xfkVA=11.11111 allocationfactor=0.3717
New "Load.1001230-db5" phases=1 bus1=s5x_1001230.2 kV=0.24 kW=3.7169996283 pf=0.9 status=variable model=4 CVRwatts=0.8 CVRvars=3 class=1 yearly=25607_B conn=wye xfkVA=11.11111 allocationfactor=0.3717
New "Load.1001230-db4" phases=1 bus1=s4x_1001230.2 kV=0.24 kW=3.7169996283 pf=0.9 status=variable model=4 CVRwatts=0.8 CVRvars=3 class=1 yearly=25607_B conn=wye xfkVA=11.11111 allocationfactor=0.3717
New "Load.1001230-db3" phases=1 bus1=s3x_1001230.2 kV=0.24 kW=3.7169996283 pf=0.9 status=variable model=4 CVRwatts=0.8 CVRvars=3 class=1 yearly=25607_B conn=wye xfkVA=11.11111 allocationfactor=0.3717