New "Transformer.1001809_xfmr_b" phases=1 buses=[165468.2, x_1001809.2, ] conns=[wye, wye, ] kVs=[7.199561, 0.24, ] kVAs=[10, 10, ] taps=[1, 1, ] wdg=1 %R=0.65 RdcOhms=28.63811 wdg=2 %R=0.65 RdcOhms=0.031824 %imag=1.6 %loadloss=1.3 %noloadloss=0.68 XHL=1.1
New "Transformer.1007732_xfmr_c" phases=1 buses=[287275.3, x_1007732.3, ] conns=[wye, wye, ] kVs=[7.199561, 0.24, ] kVAs=[25, 25, ] taps=[1, 1, ] wdg=1 %R=0.55 RdcOhms=9.692898 wdg=2 %R=0.55 RdcOhms=0.0107712 %imag=1.3 %loadloss=1.1 %noloadloss=0.47 XHL=1.1
New "Transformer.1007732_xfmr_b" phases=1 buses=[287275.2, x_1007732.2, ] conns=[wye, wye, ] kVs=[7.199561, 0.24, ] kVAs=[25, 25, ] taps=[1, 1, ] wdg=1 %R=0.55 RdcOhms=9.692898 wdg=2 %R=0.55 RdcOhms=0.0107712 %imag=1.3 %loadloss=1.1 %noloadloss=0.47 XHL=1.1
New "Transformer.1007732_xfmr_a" phases=1 buses=[287275.1, x_1007732.1, ] conns=[wye, wye, ] kVs=[7.199561, 0.24, ] kVAs=[25, 25, ] taps=[1, 1, ] wdg=1 %R=0.55 RdcOhms=9.692898 wdg=2 %R=0.55 RdcOhms=0.0107712 %imag=1.3 %loadloss=1.1 %noloadloss=0.47 XHL=1.1
New "Transformer.1003053_xfmr_c" phases=1 buses=[232497.3, x_1003053.3, ] conns=[wye, wye, ] kVs=[7.199561, 0.24, ] kVAs=[15, 15, ] taps=[1, 1, ] wdg=1 %R=0.65 RdcOhms=19.09207 wdg=2 %R=0.65 RdcOhms=0.021216 %imag=1.4 %loadloss=1.3 %noloadloss=0.56 XHL=1
New "Transformer.1003134_xfmr_abc" phases=3 windings=2 %imag=1 %loadloss=1.02 %noloadloss=0.213 XHL=4.07 buses=[280600.1.2.3, x_1003134.1.2.3, ] conns=[delta, wye, ] kVs=[12.47, 0.208, ] kVAs=[150, 150, ] taps=[1, 1, ] wdg=1 %R=0.51 RdcOhms=4.493976 wdg=2 %R=0.51 RdcOhms=0.0004167765
New "Transformer.1003127_xfmr_b" phases=1 buses=[273626.2, x_1003127.2, ] conns=[wye, wye, ] kVs=[7.199561, 0.24, ] kVAs=[10, 10, ] taps=[1, 1, ] wdg=1 %R=0.65 RdcOhms=28.63811 wdg=2 %R=0.65 RdcOhms=0.031824 %imag=1.6 %loadloss=1.3 %noloadloss=0.68 XHL=1.1
New "Transformer.1001708_xfmr_abc" phases=3 windings=2 %imag=1 %loadloss=1.1 %noloadloss=0.24 XHL=5.6 buses=[165477.1.2.3, x_1001708.1.2.3, ] conns=[delta, wye, ] kVs=[12.47, 0.208, ] kVAs=[750, 750, ] taps=[1, 1, ] wdg=1 %R=0.55 RdcOhms=0.9692889 wdg=2 %R=0.55 RdcOhms=8.989298E-005
New "Transformer.1001331_xfmr_b" phases=1 buses=[165480.2, x_1001331.2, ] conns=[wye, wye, ] kVs=[7.199561, 0.24, ] kVAs=[25, 25, ] taps=[1, 1, ] wdg=1 %R=0.55 RdcOhms=9.692898 wdg=2 %R=0.55 RdcOhms=0.0107712 %imag=1.3 %loadloss=1.1 %noloadloss=0.47 XHL=1.1
New "Transformer.1001345_xfmr_abc" phases=3 windings=2 %imag=1 %loadloss=1.02 %noloadloss=0.213 XHL=4.07 buses=[165483.1.2.3, x_1001345.1.2.3, ] conns=[delta, wye, ] kVs=[12.47, 0.208, ] kVAs=[150, 150, ] taps=[1, 1, ] wdg=1 %R=0.51 RdcOhms=4.493976 wdg=2 %R=0.51 RdcOhms=0.0004167765
New "Transformer.1000933_xfmr_abc" phases=3 windings=2 %imag=1 %loadloss=1.02 %noloadloss=0.213 XHL=4.07 buses=[165484.1.2.3, x_1000933.1.2.3, ] conns=[delta, wye, ] kVs=[12.47, 0.208, ] kVAs=[150, 150, ] taps=[1, 1, ] wdg=1 %R=0.51 RdcOhms=4.493976 wdg=2 %R=0.51 RdcOhms=0.0004167765
New "Transformer.1000042_xfmr_a" phases=1 buses=[165491.1, x_1000042.1, ] conns=[wye, wye, ] kVs=[7.199561, 0.24, ] kVAs=[100, 100, ] taps=[1, 1, ] wdg=1 %R=0.4 RdcOhms=1.762345 wdg=2 %R=0.4 RdcOhms=0.0019584 %imag=1.2 %loadloss=0.8 %noloadloss=0.36 XHL=1.5
New "Transformer.1000077_xfmr_a" phases=1 buses=[165492.1, x_1000077.1, ] conns=[wye, wye, ] kVs=[7.199561, 0.24, ] kVAs=[50, 50, ] taps=[1, 1, ] wdg=1 %R=0.45 RdcOhms=3.965277 wdg=2 %R=0.45 RdcOhms=0.0044064 %imag=1 %loadloss=0.9 %noloadloss=0.37 XHL=1.5
New "Transformer.1000043_xfmr_a" phases=1 buses=[165494.1, x_1000043.1, ] conns=[wye, wye, ] kVs=[7.199561, 0.24, ] kVAs=[50, 50, ] taps=[1, 1, ] wdg=1 %R=0.45 RdcOhms=3.965277 wdg=2 %R=0.45 RdcOhms=0.0044064 %imag=1 %loadloss=0.9 %noloadloss=0.37 XHL=1.5
New "Transformer.1000474_xfmr_a" phases=1 buses=[165493.1, x_1000474.1, ] conns=[wye, wye, ] kVs=[7.199561, 0.24, ] kVAs=[50, 50, ] taps=[1, 1, ] wdg=1 %R=0.45 RdcOhms=3.965277 wdg=2 %R=0.45 RdcOhms=0.0044064 %imag=1 %loadloss=0.9 %noloadloss=0.37 XHL=1.5
New "Transformer.1003140_xfmr_abc" phases=3 windings=2 %imag=1 %loadloss=1.1 %noloadloss=0.24 XHL=5.6 buses=[283956.1.2.3, x_1003140.1.2.3, ] conns=[delta, wye, ] kVs=[12.47, 0.208, ] kVAs=[500.01, 500.01, ] taps=[1, 1, ] wdg=1 %R=0.55 RdcOhms=1.453904 wdg=2 %R=0.55 RdcOhms=0.0001348368
New "Transformer.1001223_xfmr_a" phases=1 buses=[194054.1, x_1001223.1, ] conns=[wye, wye, ] kVs=[7.199561, 0.24, ] kVAs=[100, 100, ] taps=[1, 1, ] wdg=1 %R=0.4 RdcOhms=1.762345 wdg=2 %R=0.4 RdcOhms=0.0019584 %imag=1.2 %loadloss=0.8 %noloadloss=0.36 XHL=1.5
New "Transformer.1001222_xfmr_a" phases=1 buses=[194055.1, x_1001222.1, ] conns=[wye, wye, ] kVs=[7.199561, 0.24, ] kVAs=[100, 100, ] taps=[1, 1, ] wdg=1 %R=0.4 RdcOhms=1.762345 wdg=2 %R=0.4 RdcOhms=0.0019584 %imag=1.2 %loadloss=0.8 %noloadloss=0.36 XHL=1.5
New "Transformer.1001221_xfmr_a" phases=1 buses=[194056.1, x_1001221.1, ] conns=[wye, wye, ] kVs=[7.199561, 0.24, ] kVAs=[100, 100, ] taps=[1, 1, ] wdg=1 %R=0.4 RdcOhms=1.762345 wdg=2 %R=0.4 RdcOhms=0.0019584 %imag=1.2 %loadloss=0.8 %noloadloss=0.36 XHL=1.5
New "Transformer.1001219_xfmr_a" phases=1 buses=[194057.1, x_1001219.1, ] conns=[wye, wye, ] kVs=[7.199561, 0.24, ] kVAs=[75, 75, ] taps=[1, 1, ] wdg=1 %R=0.4 RdcOhms=2.349794 wdg=2 %R=0.4 RdcOhms=0.0026112 %imag=1.3 %loadloss=0.8 %noloadloss=0.38 XHL=1.2
New "Transformer.1001224_xfmr_c" phases=1 buses=[194058.3, x_1001224.3, ] conns=[wye, wye, ] kVs=[7.199561, 0.24, ] kVAs=[100, 100, ] taps=[1, 1, ] wdg=1 %R=0.4 RdcOhms=1.762345 wdg=2 %R=0.4 RdcOhms=0.0019584 %imag=1.2 %loadloss=0.8 %noloadloss=0.36 XHL=1.5
New "Transformer.1001225_xfmr_c" phases=1 buses=[194053.3, x_1001225.3, ] conns=[wye, wye, ] kVs=[7.199561, 0.24, ] kVAs=[100, 100, ] taps=[1, 1, ] wdg=1 %R=0.4 RdcOhms=1.762345 wdg=2 %R=0.4 RdcOhms=0.0019584 %imag=1.2 %loadloss=0.8 %noloadloss=0.36 XHL=1.5
New "Transformer.1001226_xfmr_c" phases=1 buses=[194052.3, x_1001226.3, ] conns=[wye, wye, ] kVs=[7.199561, 0.24, ] kVAs=[100, 100, ] taps=[1, 1, ] wdg=1 %R=0.4 RdcOhms=1.762345 wdg=2 %R=0.4 RdcOhms=0.0019584 %imag=1.2 %loadloss=0.8 %noloadloss=0.36 XHL=1.5
New "Transformer.1001227_xfmr_c" phases=1 buses=[194051.3, x_1001227.3, ] conns=[wye, wye, ] kVs=[7.199561, 0.24, ] kVAs=[100, 100, ] taps=[1, 1, ] wdg=1 %R=0.4 RdcOhms=1.762345 wdg=2 %R=0.4 RdcOhms=0.0019584 %imag=1.2 %loadloss=0.8 %noloadloss=0.36 XHL=1.5
New "Transformer.1001216_xfmr_b" phases=1 buses=[189950.2, x_1001216.2, ] conns=[wye, wye, ] kVs=[7.199561, 0.24, ] kVAs=[100, 100, ] taps=[1, 1, ] wdg=1 %R=0.4 RdcOhms=1.762345 wdg=2 %R=0.4 RdcOhms=0.0019584 %imag=1.2 %loadloss=0.8 %noloadloss=0.36 XHL=1.5
New "Transformer.1001215_xfmr_b" phases=1 buses=[189949.2, x_1001215.2, ] conns=[wye, wye, ] kVs=[7.199561, 0.24, ] kVAs=[100, 100, ] taps=[1, 1, ] wdg=1 %R=0.4 RdcOhms=1.762345 wdg=2 %R=0.4 RdcOhms=0.0019584 %imag=1.2 %loadloss=0.8 %noloadloss=0.36 XHL=1.5
New "Transformer.1001214_xfmr_b" phases=1 buses=[189948.2, x_1001214.2, ] conns=[wye, wye, ] kVs=[7.199561, 0.24, ] kVAs=[100, 100, ] taps=[1, 1, ] wdg=1 %R=0.4 RdcOhms=1.762345 wdg=2 %R=0.4 RdcOhms=0.0019584 %imag=1.2 %loadloss=0.8 %noloadloss=0.36 XHL=1.5
New "Transformer.1001213_xfmr_b" phases=1 buses=[194050.2, x_1001213.2, ] conns=[wye, wye, ] kVs=[7.199561, 0.24, ] kVAs=[75, 75, ] taps=[1, 1, ] wdg=1 %R=0.4 RdcOhms=2.349794 wdg=2 %R=0.4 RdcOhms=0.0026112 %imag=1.3 %loadloss=0.8 %noloadloss=0.38 XHL=1.2
New "Transformer.1001217_xfmr_a" phases=1 buses=[189951.1, x_1001217.1, ] conns=[wye, wye, ] kVs=[7.199561, 0.24, ] kVAs=[100, 100, ] taps=[1, 1, ] wdg=1 %R=0.4 RdcOhms=1.762345 wdg=2 %R=0.4 RdcOhms=0.0019584 %imag=1.2 %loadloss=0.8 %noloadloss=0.36 XHL=1.5
New "Transformer.1001218_xfmr_a" phases=1 buses=[194048.1, x_1001218.1, ] conns=[wye, wye, ] kVs=[7.199561, 0.24, ] kVAs=[100, 100, ] taps=[1, 1, ] wdg=1 %R=0.4 RdcOhms=1.762345 wdg=2 %R=0.4 RdcOhms=0.0019584 %imag=1.2 %loadloss=0.8 %noloadloss=0.36 XHL=1.5
New "Transformer.1001220_xfmr_a" phases=1 buses=[194049.1, x_1001220.1, ] conns=[wye, wye, ] kVs=[7.199561, 0.24, ] kVAs=[100, 100, ] taps=[1, 1, ] wdg=1 %R=0.4 RdcOhms=1.762345 wdg=2 %R=0.4 RdcOhms=0.0019584 %imag=1.2 %loadloss=0.8 %noloadloss=0.36 XHL=1.5
New "Transformer.1001228_xfmr_b" phases=1 buses=[194059.2, x_1001228.2, ] conns=[wye, wye, ] kVs=[7.199561, 0.24, ] kVAs=[100, 100, ] taps=[1, 1, ] wdg=1 %R=0.4 RdcOhms=1.762345 wdg=2 %R=0.4 RdcOhms=0.0019584 %imag=1.2 %loadloss=0.8 %noloadloss=0.36 XHL=1.5
New "Transformer.1001229_xfmr_b" phases=1 buses=[194060.2, x_1001229.2, ] conns=[wye, wye, ] kVs=[7.199561, 0.24, ] kVAs=[100, 100, ] taps=[1, 1, ] wdg=1 %R=0.4 RdcOhms=1.762345 wdg=2 %R=0.4 RdcOhms=0.0019584 %imag=1.2 %loadloss=0.8 %noloadloss=0.36 XHL=1.5
New "Transformer.1001230_xfmr_b" phases=1 buses=[194061.2, x_1001230.2, ] conns=[wye, wye, ] kVs=[7.199561, 0.24, ] kVAs=[100, 100, ] taps=[1, 1, ] wdg=1 %R=0.4 RdcOhms=1.762345 wdg=2 %R=0.4 RdcOhms=0.0019584 %imag=1.2 %loadloss=0.8 %noloadloss=0.36 XHL=1.5
New "Transformer.1001234_xfmr_c" phases=1 buses=[194062.3, x_1001234.3, ] conns=[wye, wye, ] kVs=[7.199561, 0.24, ] kVAs=[100, 100, ] taps=[1, 1, ] wdg=1 %R=0.4 RdcOhms=1.762345 wdg=2 %R=0.4 RdcOhms=0.0019584 %imag=1.2 %loadloss=0.8 %noloadloss=0.36 XHL=1.5
New "Transformer.1001233_xfmr_c" phases=1 buses=[194063.3, x_1001233.3, ] conns=[wye, wye, ] kVs=[7.199561, 0.24, ] kVAs=[50, 50, ] taps=[1, 1, ] wdg=1 %R=0.45 RdcOhms=3.965277 wdg=2 %R=0.45 RdcOhms=0.0044064 %imag=1 %loadloss=0.9 %noloadloss=0.37 XHL=1.5
New "Transformer.1001232_xfmr_c" phases=1 buses=[194064.3, x_1001232.3, ] conns=[wye, wye, ] kVs=[7.199561, 0.24, ] kVAs=[100, 100, ] taps=[1, 1, ] wdg=1 %R=0.4 RdcOhms=1.762345 wdg=2 %R=0.4 RdcOhms=0.0019584 %imag=1.2 %loadloss=0.8 %noloadloss=0.36 XHL=1.5
New "Transformer.1001231_xfmr_c" phases=1 buses=[194065.3, x_1001231.3, ] conns=[wye, wye, ] kVs=[7.199561, 0.24, ] kVAs=[100, 100, ] taps=[1, 1, ] wdg=1 %R=0.4 RdcOhms=1.762345 wdg=2 %R=0.4 RdcOhms=0.0019584 %imag=1.2 %loadloss=0.8 %noloadloss=0.36 XHL=1.5
New "Transformer.1000015_xfmr_a" phases=1 buses=[181976.1, x_1000015.1, ] conns=[wye, wye, ] kVs=[7.199561, 0.24, ] kVAs=[50, 50, ] taps=[1, 1, ] wdg=1 %R=0.45 RdcOhms=3.965277 wdg=2 %R=0.45 RdcOhms=0.0044064 %imag=1 %loadloss=0.9 %noloadloss=0.37 XHL=1.5
New "Transformer.1000764_xfmr_abc" phases=3 windings=2 %imag=1 %loadloss=1 %noloadloss=0.21 XHL=5.6 buses=[181980.1.2.3, x_1000764.1.2.3, ] conns=[delta, wye, ] kVs=[12.47, 0.208, ] kVAs=[999.99, 999.99, ] taps=[1, 1, ] wdg=1 %R=0.5 RdcOhms=0.6608854 wdg=2 %R=0.5 RdcOhms=6.129128E-005
New "Transformer.1000016_xfmr_b" phases=1 buses=[181975.2, x_1000016.2, ] conns=[wye, wye, ] kVs=[7.199561, 0.24, ] kVAs=[25, 25, ] taps=[1, 1, ] wdg=1 %R=0.55 RdcOhms=9.692898 wdg=2 %R=0.55 RdcOhms=0.0107712 %imag=1.3 %loadloss=1.1 %noloadloss=0.47 XHL=1.1
New "Transformer.1001685_xfmr_abc" phases=3 windings=2 %imag=1 %loadloss=0.9 %noloadloss=0.22 XHL=5.7 buses=[181981.1.2.3, x_1001685.1.2.3, ] conns=[delta, wye, ] kVs=[12.47, 0.208, ] kVAs=[1500, 1500, ] taps=[1, 1, ] wdg=1 %R=0.45 RdcOhms=0.3965273 wdg=2 %R=0.45 RdcOhms=3.67744E-005
New "Transformer.1000532_xfmr_a" phases=1 buses=[181952.1, x_1000532.1, ] conns=[wye, wye, ] kVs=[7.199561, 0.24, ] kVAs=[100, 100, ] taps=[1, 1, ] wdg=1 %R=0.4 RdcOhms=1.762345 wdg=2 %R=0.4 RdcOhms=0.0019584 %imag=1.2 %loadloss=0.8 %noloadloss=0.36 XHL=1.5
New "Transformer.1000533_xfmr_a" phases=1 buses=[181951.1, x_1000533.1, ] conns=[wye, wye, ] kVs=[7.199561, 0.24, ] kVAs=[75, 75, ] taps=[1, 1, ] wdg=1 %R=0.4 RdcOhms=2.349794 wdg=2 %R=0.4 RdcOhms=0.0026112 %imag=1.3 %loadloss=0.8 %noloadloss=0.38 XHL=1.2
New "Transformer.1000531_xfmr_a" phases=1 buses=[181950.1, x_1000531.1, ] conns=[wye, wye, ] kVs=[7.199561, 0.24, ] kVAs=[75, 75, ] taps=[1, 1, ] wdg=1 %R=0.4 RdcOhms=2.349794 wdg=2 %R=0.4 RdcOhms=0.0026112 %imag=1.3 %loadloss=0.8 %noloadloss=0.38 XHL=1.2
New "Transformer.1000582_xfmr_a" phases=1 buses=[181953.1, x_1000582.1, ] conns=[wye, wye, ] kVs=[7.199561, 0.24, ] kVAs=[50, 50, ] taps=[1, 1, ] wdg=1 %R=0.45 RdcOhms=3.965277 wdg=2 %R=0.45 RdcOhms=0.0044064 %imag=1 %loadloss=0.9 %noloadloss=0.37 XHL=1.5
New "Transformer.1000534_xfmr_c" phases=1 buses=[181957.3, x_1000534.3, ] conns=[wye, wye, ] kVs=[7.199561, 0.24, ] kVAs=[25, 25, ] taps=[1, 1, ] wdg=1 %R=0.55 RdcOhms=9.692898 wdg=2 %R=0.55 RdcOhms=0.0107712 %imag=1.3 %loadloss=1.1 %noloadloss=0.47 XHL=1.1
New "Transformer.1000587_xfmr_c" phases=1 buses=[181961.3, x_1000587.3, ] conns=[wye, wye, ] kVs=[7.199561, 0.24, ] kVAs=[75, 75, ] taps=[1, 1, ] wdg=1 %R=0.4 RdcOhms=2.349794 wdg=2 %R=0.4 RdcOhms=0.0026112 %imag=1.3 %loadloss=0.8 %noloadloss=0.38 XHL=1.2
New "Transformer.1000588_xfmr_c" phases=1 buses=[181962.3, x_1000588.3, ] conns=[wye, wye, ] kVs=[7.199561, 0.24, ] kVAs=[75, 75, ] taps=[1, 1, ] wdg=1 %R=0.4 RdcOhms=2.349794 wdg=2 %R=0.4 RdcOhms=0.0026112 %imag=1.3 %loadloss=0.8 %noloadloss=0.38 XHL=1.2
New "Transformer.1000589_xfmr_c" phases=1 buses=[181960.3, x_1000589.3, ] conns=[wye, wye, ] kVs=[7.199561, 0.24, ] kVAs=[100, 100, ] taps=[1, 1, ] wdg=1 %R=0.4 RdcOhms=1.762345 wdg=2 %R=0.4 RdcOhms=0.0019584 %imag=1.2 %loadloss=0.8 %noloadloss=0.36 XHL=1.5
New "Transformer.1000536_xfmr_a" phases=1 buses=[181956.1, x_1000536.1, ] conns=[wye, wye, ] kVs=[7.199561, 0.24, ] kVAs=[100, 100, ] taps=[1, 1, ] wdg=1 %R=0.4 RdcOhms=1.762345 wdg=2 %R=0.4 RdcOhms=0.0019584 %imag=1.2 %loadloss=0.8 %noloadloss=0.36 XHL=1.5
New "Transformer.1000537_xfmr_a" phases=1 buses=[181955.1, x_1000537.1, ] conns=[wye, wye, ] kVs=[7.199561, 0.24, ] kVAs=[75, 75, ] taps=[1, 1, ] wdg=1 %R=0.4 RdcOhms=2.349794 wdg=2 %R=0.4 RdcOhms=0.0026112 %imag=1.3 %loadloss=0.8 %noloadloss=0.38 XHL=1.2
New "Transformer.1000581_xfmr_a" phases=1 buses=[181954.1, x_1000581.1, ] conns=[wye, wye, ] kVs=[7.199561, 0.24, ] kVAs=[50, 50, ] taps=[1, 1, ] wdg=1 %R=0.45 RdcOhms=3.965277 wdg=2 %R=0.45 RdcOhms=0.0044064 %imag=1 %loadloss=0.9 %noloadloss=0.37 XHL=1.5
New "Transformer.1000535_xfmr_c" phases=1 buses=[181958.3, x_1000535.3, ] conns=[wye, wye, ] kVs=[7.199561, 0.24, ] kVAs=[100, 100, ] taps=[1, 1, ] wdg=1 %R=0.4 RdcOhms=1.762345 wdg=2 %R=0.4 RdcOhms=0.0019584 %imag=1.2 %loadloss=0.8 %noloadloss=0.36 XHL=1.5
New "Transformer.1000583_xfmr_c" phases=1 buses=[181967.3, x_1000583.3, ] conns=[wye, wye, ] kVs=[7.199561, 0.24, ] kVAs=[75, 75, ] taps=[1, 1, ] wdg=1 %R=0.4 RdcOhms=2.349794 wdg=2 %R=0.4 RdcOhms=0.0026112 %imag=1.3 %loadloss=0.8 %noloadloss=0.38 XHL=1.2
New "Transformer.1000584_xfmr_c" phases=1 buses=[181966.3, x_1000584.3, ] conns=[wye, wye, ] kVs=[7.199561, 0.24, ] kVAs=[100, 100, ] taps=[1, 1, ] wdg=1 %R=0.4 RdcOhms=1.762345 wdg=2 %R=0.4 RdcOhms=0.0019584 %imag=1.2 %loadloss=0.8 %noloadloss=0.36 XHL=1.5
New "Transformer.1000585_xfmr_c" phases=1 buses=[181965.3, x_1000585.3, ] conns=[wye, wye, ] kVs=[7.199561, 0.24, ] kVAs=[50, 50, ] taps=[1, 1, ] wdg=1 %R=0.45 RdcOhms=3.965277 wdg=2 %R=0.45 RdcOhms=0.0044064 %imag=1 %loadloss=0.9 %noloadloss=0.37 XHL=1.5
New "Transformer.1000586_xfmr_c" phases=1 buses=[181959.3, x_1000586.3, ] conns=[wye, wye, ] kVs=[7.199561, 0.24, ] kVAs=[50, 50, ] taps=[1, 1, ] wdg=1 %R=0.45 RdcOhms=3.965277 wdg=2 %R=0.45 RdcOhms=0.0044064 %imag=1 %loadloss=0.9 %noloadloss=0.37 XHL=1.5
New "Transformer.1000198_xfmr_a" phases=1 buses=[181936.1, x_1000198.1, ] conns=[wye, wye, ] kVs=[7.199561, 0.24, ] kVAs=[10, 10, ] taps=[1, 1, ] wdg=1 %R=0.65 RdcOhms=28.63811 wdg=2 %R=0.65 RdcOhms=0.031824 %imag=1.6 %loadloss=1.3 %noloadloss=0.68 XHL=1.1
New "Transformer.1001933_xfmr_abc" phases=3 windings=2 %imag=1 %loadloss=1 %noloadloss=0.21 XHL=5.6 buses=[181935.1.2.3, x_1001933.1.2.3, ] conns=[delta, wye, ] kVs=[12.47, 0.208, ] kVAs=[999.99, 999.99, ] taps=[1, 1, ] wdg=1 %R=0.5 RdcOhms=0.6608854 wdg=2 %R=0.5 RdcOhms=6.129128E-005
New "Transformer.1001819_xfmr_a" phases=1 buses=[181985.1, x_1001819.1, ] conns=[wye, wye, ] kVs=[7.199561, 0.24, ] kVAs=[10, 10, ] taps=[1, 1, ] wdg=1 %R=0.65 RdcOhms=28.63811 wdg=2 %R=0.65 RdcOhms=0.031824 %imag=1.6 %loadloss=1.3 %noloadloss=0.68 XHL=1.1
New "Transformer.1000199_xfmr_c" phases=1 buses=[181986.3, x_1000199.3, ] conns=[wye, wye, ] kVs=[7.199561, 0.24, ] kVAs=[15, 15, ] taps=[1, 1, ] wdg=1 %R=0.65 RdcOhms=19.09207 wdg=2 %R=0.65 RdcOhms=0.021216 %imag=1.4 %loadloss=1.3 %noloadloss=0.56 XHL=1
New "Transformer.1000199_xfmr_b" phases=1 buses=[181986.2, x_1000199.2, ] conns=[wye, wye, ] kVs=[7.199561, 0.24, ] kVAs=[15, 15, ] taps=[1, 1, ] wdg=1 %R=0.65 RdcOhms=19.09207 wdg=2 %R=0.65 RdcOhms=0.021216 %imag=1.4 %loadloss=1.3 %noloadloss=0.56 XHL=1
New "Transformer.1000199_xfmr_a" phases=1 buses=[181986.1, x_1000199.1, ] conns=[wye, wye, ] kVs=[7.199561, 0.24, ] kVAs=[15, 15, ] taps=[1, 1, ] wdg=1 %R=0.65 RdcOhms=19.09207 wdg=2 %R=0.65 RdcOhms=0.021216 %imag=1.4 %loadloss=1.3 %noloadloss=0.56 XHL=1
New "Transformer.1000567_xfmr_abc" phases=3 windings=2 %imag=1 %loadloss=0.698 %noloadloss=0.188 XHL=4.14 buses=[181989.1.2.3, x_1000567.1.2.3, ] conns=[delta, wye, ] kVs=[12.47, 0.208, ] kVAs=[300, 300, ] taps=[1, 1, ] wdg=1 %R=0.349 RdcOhms=1.537645 wdg=2 %R=0.349 RdcOhms=0.000142603
New "Transformer.1001577_xfmr_abc" phases=3 windings=2 %imag=1 %loadloss=0.9 %noloadloss=0.19 XHL=5.7 buses=[181991.1.2.3, x_1001577.1.2.3, ] conns=[delta, wye, ] kVs=[12.47, 0.208, ] kVAs=[2000.01, 2000.01, ] taps=[1, 1, ] wdg=1 %R=0.45 RdcOhms=0.297394 wdg=2 %R=0.45 RdcOhms=2.758066E-005
New "Transformer.1001665_xfmr_abc" phases=3 windings=2 %imag=1 %loadloss=1 %noloadloss=0.21 XHL=5.6 buses=[181990.1.2.3, x_1001665.1.2.3, ] conns=[delta, wye, ] kVs=[12.47, 0.208, ] kVAs=[999.99, 999.99, ] taps=[1, 1, ] wdg=1 %R=0.5 RdcOhms=0.6608854 wdg=2 %R=0.5 RdcOhms=6.129128E-005
New "Transformer.1000548_xfmr_a" phases=1 buses=[181937.1, x_1000548.1, ] conns=[wye, wye, ] kVs=[7.199561, 0.24, ] kVAs=[50, 50, ] taps=[1, 1, ] wdg=1 %R=0.45 RdcOhms=3.965277 wdg=2 %R=0.45 RdcOhms=0.0044064 %imag=1 %loadloss=0.9 %noloadloss=0.37 XHL=1.5
New "Transformer.1000069_xfmr_abc" phases=3 windings=2 %imag=1 %loadloss=0.698 %noloadloss=0.188 XHL=4.14 buses=[181938.1.2.3, x_1000069.1.2.3, ] conns=[delta, wye, ] kVs=[12.47, 0.208, ] kVAs=[300, 300, ] taps=[1, 1, ] wdg=1 %R=0.349 RdcOhms=1.537645 wdg=2 %R=0.349 RdcOhms=0.000142603
New "Transformer.1001316_xfmr_abc" phases=3 windings=2 %imag=1 %loadloss=1.02 %noloadloss=0.213 XHL=4.07 buses=[181941.1.2.3, x_1001316.1.2.3, ] conns=[delta, wye, ] kVs=[12.47, 0.208, ] kVAs=[150, 150, ] taps=[1, 1, ] wdg=1 %R=0.51 RdcOhms=4.493976 wdg=2 %R=0.51 RdcOhms=0.0004167765
New "Transformer.1000232_xfmr_c" phases=1 buses=[181884.3, x_1000232.3, ] conns=[wye, wye, ] kVs=[7.199561, 0.24, ] kVAs=[37, 37, ] taps=[1, 1, ] wdg=1 %R=0.5 RdcOhms=5.953869 wdg=2 %R=0.5 RdcOhms=0.006616216 %imag=1.1 %loadloss=1 %noloadloss=0.44 XHL=1.3
New "Transformer.1000233_xfmr_b" phases=1 buses=[181885.2, x_1000233.2, ] conns=[wye, wye, ] kVs=[7.199561, 0.24, ] kVAs=[37, 37, ] taps=[1, 1, ] wdg=1 %R=0.5 RdcOhms=5.953869 wdg=2 %R=0.5 RdcOhms=0.006616216 %imag=1.1 %loadloss=1 %noloadloss=0.44 XHL=1.3
New "Transformer.1000746_xfmr_abc" phases=3 windings=2 %imag=1 %loadloss=0.698 %noloadloss=0.188 XHL=4.14 buses=[181894.1.2.3, x_1000746.1.2.3, ] conns=[delta, wye, ] kVs=[12.47, 0.208, ] kVAs=[300, 300, ] taps=[1, 1, ] wdg=1 %R=0.349 RdcOhms=1.537645 wdg=2 %R=0.349 RdcOhms=0.000142603
New "Transformer.1001016_xfmr_abc" phases=3 windings=2 %imag=1 %loadloss=1.02 %noloadloss=0.213 XHL=4.07 buses=[181897.1.2.3, x_1001016.1.2.3, ] conns=[delta, wye, ] kVs=[12.47, 0.208, ] kVAs=[150, 150, ] taps=[1, 1, ] wdg=1 %R=0.51 RdcOhms=4.493976 wdg=2 %R=0.51 RdcOhms=0.0004167765
New "Transformer.1000603_xfmr_b" phases=1 buses=[181910.2, x_1000603.2, ] conns=[wye, wye, ] kVs=[7.199561, 0.24, ] kVAs=[75, 75, ] taps=[1, 1, ] wdg=1 %R=0.4 RdcOhms=2.349794 wdg=2 %R=0.4 RdcOhms=0.0026112 %imag=1.3 %loadloss=0.8 %noloadloss=0.38 XHL=1.2
New "Transformer.1000604_xfmr_b" phases=1 buses=[181911.2, x_1000604.2, ] conns=[wye, wye, ] kVs=[7.199561, 0.24, ] kVAs=[75, 75, ] taps=[1, 1, ] wdg=1 %R=0.4 RdcOhms=2.349794 wdg=2 %R=0.4 RdcOhms=0.0026112 %imag=1.3 %loadloss=0.8 %noloadloss=0.38 XHL=1.2
New "Transformer.1000605_xfmr_b" phases=1 buses=[181912.2, x_1000605.2, ] conns=[wye, wye, ] kVs=[7.199561, 0.24, ] kVAs=[100, 100, ] taps=[1, 1, ] wdg=1 %R=0.4 RdcOhms=1.762345 wdg=2 %R=0.4 RdcOhms=0.0019584 %imag=1.2 %loadloss=0.8 %noloadloss=0.36 XHL=1.5
New "Transformer.1000606_xfmr_b" phases=1 buses=[181913.2, x_1000606.2, ] conns=[wye, wye, ] kVs=[7.199561, 0.24, ] kVAs=[75, 75, ] taps=[1, 1, ] wdg=1 %R=0.4 RdcOhms=2.349794 wdg=2 %R=0.4 RdcOhms=0.0026112 %imag=1.3 %loadloss=0.8 %noloadloss=0.38 XHL=1.2
New "Transformer.1001349_xfmr_b" phases=1 buses=[181914.2, x_1001349.2, ] conns=[wye, wye, ] kVs=[7.199561, 0.24, ] kVAs=[50, 50, ] taps=[1, 1, ] wdg=1 %R=0.45 RdcOhms=3.965277 wdg=2 %R=0.45 RdcOhms=0.0044064 %imag=1 %loadloss=0.9 %noloadloss=0.37 XHL=1.5
New "Transformer.1000607_xfmr_b" phases=1 buses=[181915.2, x_1000607.2, ] conns=[wye, wye, ] kVs=[7.199561, 0.24, ] kVAs=[50, 50, ] taps=[1, 1, ] wdg=1 %R=0.45 RdcOhms=3.965277 wdg=2 %R=0.45 RdcOhms=0.0044064 %imag=1 %loadloss=0.9 %noloadloss=0.37 XHL=1.5
New "Transformer.1000600_xfmr_c" phases=1 buses=[181905.3, x_1000600.3, ] conns=[wye, wye, ] kVs=[7.199561, 0.24, ] kVAs=[50, 50, ] taps=[1, 1, ] wdg=1 %R=0.45 RdcOhms=3.965277 wdg=2 %R=0.45 RdcOhms=0.0044064 %imag=1 %loadloss=0.9 %noloadloss=0.37 XHL=1.5
New "Transformer.1000602_xfmr_c" phases=1 buses=[181906.3, x_1000602.3, ] conns=[wye, wye, ] kVs=[7.199561, 0.24, ] kVAs=[50, 50, ] taps=[1, 1, ] wdg=1 %R=0.45 RdcOhms=3.965277 wdg=2 %R=0.45 RdcOhms=0.0044064 %imag=1 %loadloss=0.9 %noloadloss=0.37 XHL=1.5
New "Transformer.1000601_xfmr_c" phases=1 buses=[181907.3, x_1000601.3, ] conns=[wye, wye, ] kVs=[7.199561, 0.24, ] kVAs=[50, 50, ] taps=[1, 1, ] wdg=1 %R=0.45 RdcOhms=3.965277 wdg=2 %R=0.45 RdcOhms=0.0044064 %imag=1 %loadloss=0.9 %noloadloss=0.37 XHL=1.5
New "Transformer.1000599_xfmr_c" phases=1 buses=[181904.3, x_1000599.3, ] conns=[wye, wye, ] kVs=[7.199561, 0.24, ] kVAs=[75, 75, ] taps=[1, 1, ] wdg=1 %R=0.4 RdcOhms=2.349794 wdg=2 %R=0.4 RdcOhms=0.0026112 %imag=1.3 %loadloss=0.8 %noloadloss=0.38 XHL=1.2
New "Transformer.1000598_xfmr_c" phases=1 buses=[181903.3, x_1000598.3, ] conns=[wye, wye, ] kVs=[7.199561, 0.24, ] kVAs=[75, 75, ] taps=[1, 1, ] wdg=1 %R=0.4 RdcOhms=2.349794 wdg=2 %R=0.4 RdcOhms=0.0026112 %imag=1.3 %loadloss=0.8 %noloadloss=0.38 XHL=1.2
New "Transformer.1000608_xfmr_a" phases=1 buses=[181898.1, x_1000608.1, ] conns=[wye, wye, ] kVs=[7.199561, 0.24, ] kVAs=[75, 75, ] taps=[1, 1, ] wdg=1 %R=0.4 RdcOhms=2.349794 wdg=2 %R=0.4 RdcOhms=0.0026112 %imag=1.3 %loadloss=0.8 %noloadloss=0.38 XHL=1.2
New "Transformer.1000609_xfmr_a" phases=1 buses=[181899.1, x_1000609.1, ] conns=[wye, wye, ] kVs=[7.199561, 0.24, ] kVAs=[50, 50, ] taps=[1, 1, ] wdg=1 %R=0.45 RdcOhms=3.965277 wdg=2 %R=0.45 RdcOhms=0.0044064 %imag=1 %loadloss=0.9 %noloadloss=0.37 XHL=1.5
New "Transformer.1000610_xfmr_a" phases=1 buses=[181900.1, x_1000610.1, ] conns=[wye, wye, ] kVs=[7.199561, 0.24, ] kVAs=[100, 100, ] taps=[1, 1, ] wdg=1 %R=0.4 RdcOhms=1.762345 wdg=2 %R=0.4 RdcOhms=0.0019584 %imag=1.2 %loadloss=0.8 %noloadloss=0.36 XHL=1.5
New "Transformer.1000611_xfmr_a" phases=1 buses=[181901.1, x_1000611.1, ] conns=[wye, wye, ] kVs=[7.199561, 0.24, ] kVAs=[50, 50, ] taps=[1, 1, ] wdg=1 %R=0.45 RdcOhms=3.965277 wdg=2 %R=0.45 RdcOhms=0.0044064 %imag=1 %loadloss=0.9 %noloadloss=0.37 XHL=1.5
New "Transformer.1000612_xfmr_a" phases=1 buses=[181902.1, x_1000612.1, ] conns=[wye, wye, ] kVs=[7.199561, 0.24, ] kVAs=[100, 100, ] taps=[1, 1, ] wdg=1 %R=0.4 RdcOhms=1.762345 wdg=2 %R=0.4 RdcOhms=0.0019584 %imag=1.2 %loadloss=0.8 %noloadloss=0.36 XHL=1.5
New "Transformer.1000569_xfmr_abc" phases=3 windings=2 %imag=1 %loadloss=0.698 %noloadloss=0.188 XHL=4.14 buses=[181893.1.2.3, x_1000569.1.2.3, ] conns=[delta, wye, ] kVs=[12.47, 0.208, ] kVAs=[300, 300, ] taps=[1, 1, ] wdg=1 %R=0.349 RdcOhms=1.537645 wdg=2 %R=0.349 RdcOhms=0.000142603
New "Transformer.1001567_xfmr_abc" phases=3 windings=2 %imag=1 %loadloss=1.02 %noloadloss=0.213 XHL=4.07 buses=[165503.1.2.3, x_1001567.1.2.3, ] conns=[delta, wye, ] kVs=[12.47, 0.208, ] kVAs=[150, 150, ] taps=[1, 1, ] wdg=1 %R=0.51 RdcOhms=4.493976 wdg=2 %R=0.51 RdcOhms=0.0004167765
New "Transformer.1001822_xfmr_c" phases=1 buses=[165486.3, x_1001822.3, ] conns=[wye, wye, ] kVs=[7.199561, 0.24, ] kVAs=[5, 5, ] taps=[1, 1, ] wdg=1 %R=1.05 RdcOhms=92.52312 wdg=2 %R=1.05 RdcOhms=0.102816 %imag=2.4 %loadloss=2.1 %noloadloss=0.68 XHL=0.8
New "Transformer.1001822_xfmr_b" phases=1 buses=[165486.2, x_1001822.2, ] conns=[wye, wye, ] kVs=[7.199561, 0.24, ] kVAs=[5, 5, ] taps=[1, 1, ] wdg=1 %R=1.05 RdcOhms=92.52312 wdg=2 %R=1.05 RdcOhms=0.102816 %imag=2.4 %loadloss=2.1 %noloadloss=0.68 XHL=0.8
New "Transformer.1001822_xfmr_a" phases=1 buses=[165486.1, x_1001822.1, ] conns=[wye, wye, ] kVs=[7.199561, 0.24, ] kVAs=[5, 5, ] taps=[1, 1, ] wdg=1 %R=1.05 RdcOhms=92.52312 wdg=2 %R=1.05 RdcOhms=0.102816 %imag=2.4 %loadloss=2.1 %noloadloss=0.68 XHL=0.8
New "Transformer.1001823_xfmr_a" phases=1 buses=[165485.1, x_1001823.1, ] conns=[wye, wye, ] kVs=[7.199561, 0.24, ] kVAs=[37, 37, ] taps=[1, 1, ] wdg=1 %R=0.5 RdcOhms=5.953869 wdg=2 %R=0.5 RdcOhms=0.006616216 %imag=1.1 %loadloss=1 %noloadloss=0.44 XHL=1.3
