New Loadshape.LS_PhaseA npts=8760 interval=1 MemoryMapping=Yes csvfile=LS_Phase_AOK.txt
