New Loadshape.LS_PhaseA npts=8760 interval=1 mult=(file=LS_Phase_AOK.txt) 
