Clear
New Circuit.TheveninEquivalent bus1=A_internal.1.2.3 bus2=A_internal.2.3.1 pu=1.1 
~ basekv=(13.8 3 sqrt *) Z0=[0.000001, 0.000001] Z1=[0.000001, 0.000001]

New Reactor.SourceImpedance bus1=A_internal.1.2.3 bus2=A.1.2.3
~ Z0=[0.025862916, 0.077588748] Z1=[0.023094242, 0.092376969]

Set voltagebases=[13.8]
Calcvoltagebases

Solve