New "LoadShape.default" npts=24 interval=1 mult=[ 0.677 0.6256 0.6087 0.5833 0.58028 0.6025 0.657 0.7477 0.832 0.88 0.94 0.989 0.985 0.98 0.9898 0.999 1 0.958 0.936 0.913 0.876 0.876 0.828 0.756]
New "LoadShape.pvloadshape" npts=1500 minterval=1 mult=[ -0.00266363 -0.00265838 -0.00265524 -0.00266258 -0.00269825 -0.00270035 -0.00268881 -0.00266468 -0.00266468 -0.00266468 -0.00266153 -0.00266468 -0.00266887 -0.00266678 -0.00266573 -0.00266468 -0.00266468 -0.00270244 -0.00271608 -0.00268881 -0.00267727 -0.00268671 -0.00268986 -0.00268776 -0.00268881 -0.00267832 -0.00267832 -0.00271608 -0.00272028 -0.00269615 -0.00268671 -0.00268986 -0.0026909 -0.002693 -0.002693 -0.00268776 -0.00268566 -0.00272762 -0.00272448 -0.00268776 -0.00268566 -0.00268356 -0.00268461 -0.00268461 -0.00268566 -0.00268566 -0.00268461 -0.00272448 -0.00272448 -0.00270664 -0.00268251 -0.00268041 -0.00268251 -0.00268251 -0.00268251 -0.0026909 -0.00268251 -0.00268566 -0.00272133 -0.00271398 -0.00267936 -0.00267832 -0.00267936 -0.00267832 -0.00268041 -0.00268146 -0.00268041 -0.00268146 -0.00272028 -0.00271923 -0.00268881 -0.00268461 -0.00268146 -0.00268356 -0.00268461 -0.00268461 -0.00268461 -0.00268251 -0.00267936 -0.00271398 -0.00272343 -0.00272238 -0.00268566 -0.00268461 -0.00268461 -0.00268776 -0.00268461 -0.00268671 -0.00268671 -0.00270664 -0.00272762 -0.00272657 -0.00268776 -0.00268776 -0.00268986 -0.0026909 -0.00268986 -0.00268881 -0.00268671 -0.00271503 -0.00272657 -0.00272657 -0.00268881 -0.00268881 -0.0026909 -0.00268986 -0.00268881 -0.002693 -0.002693 -0.00268986 -0.00272657 -0.00272867 -0.0026951 -0.002693 -0.00269405 -0.0026951 -0.002693 -0.00269615 -0.0026993 -0.00269615 -0.00270035 -0.00272762 -0.00273602 -0.00273811 -0.00270035 -0.0026972 -0.00270035 -0.0026993 -0.0026993 -0.00269405 -0.00269195 -0.00272657 -0.00272552 -0.00272552 -0.00268776 -0.00268671 -0.00268671 -0.0026909 -0.0026909 -0.0026909 -0.00270769 -0.00272657 -0.00272762 -0.00268881 -0.0026909 -0.0026909 -0.00268671 -0.0026909 -0.0026909 -0.00268881 -0.00272552 -0.00272867 -0.00272867 -0.00268986 -0.00268881 -0.00268881 -0.00269195 -0.00268986 -0.00269195 -0.00273077 -0.00273077 -0.00272867 -0.0026909 -0.0026909 -0.00268986 -0.00268986 -0.00269195 -0.0026909 -0.00272448 -0.00272972 -0.00273287 -0.00269195 -0.0026951 -0.0026909 -0.00268881 -0.00268986 -0.0026909 -0.00272343 -0.00272972 -0.00272867 -0.00268986 -0.00268986 -0.002693 -0.00268776 -0.00268566 -0.00269195 -0.00273182 -0.00272867 -0.00272762 -0.00269405 -0.00269405 -0.002693 -0.002693 -0.00269405 -0.0026951 -0.00270244 -0.00273182 -0.00273182 -0.00269615 -0.0026972 -0.0026951 -0.0026972 -0.00269405 -0.002693 -0.00269405 -0.00269405 -0.00269615 -0.00273077 -0.00273392 -0.00272028 -0.0026909 -0.0026951 -0.002693 -0.00269405 -0.00269195 -0.00269405 -0.00269405 -0.00270244 -0.00273077 -0.00273287 -0.00269405 -0.0026972 -0.0026972 -0.00269825 -0.0026972 -0.00269615 -0.00269615 -0.00269615 -0.00273077 -0.00273182 -0.00271818 -0.002693 -0.002693 -0.00269405 -0.00269405 -0.0026951 -0.002693 -0.0027014 -0.00273287 -0.00272972 -0.00269405 -0.0026951 -0.0026951 -0.00269615 -0.00269615 -0.0026951 -0.0026951 -0.0026972 -0.0026993 -0.00273706 -0.00274231 -0.00270349 -0.00270035 -0.00269825 -0.00269825 -0.00269615 -0.00270035 -0.00270244 -0.00270349 -0.00270559 -0.00274336 -0.00274126 -0.00271398 -0.00270664 -0.00270769 -0.00270559 -0.00270769 -0.00271818 -0.00271923 -0.00272028 -0.0027591 -0.00276014 -0.00272448 -0.00271923 -0.00271923 -0.00271818 -0.00271818 -0.00271818 -0.00271818 -0.00275385 -0.00274965 -0.00274756 -0.00271189 -0.00271189 -0.00271398 -0.00271189 -0.00271084 -0.00271189 -0.00271398 -0.0027507 -0.00275175 -0.00271713 -0.00271189 -0.00271084 -0.00271398 -0.00271084 -0.00271084 -0.00271189 -0.00274231 -0.00275175 -0.0027507 -0.00271294 -0.00271084 -0.00271713 -0.00271608 -0.00271503 -0.00271608 -0.00271713 -0.00271713 -0.0027549 -0.0027591 -0.00273706 -0.00271923 -0.00272028 -0.00272133 -0.00270979 -0.00270454 -0.00271294 -0.00274965 -0.0027507 -0.00273497 -0.00271398 -0.00254298 -0.00271189 -0.00271398 -0.00271294 -0.00272448 -0.00276329 -0.00276224 -0.00255138 -0.00272343 -0.00272552 -0.00272762 -0.00268776 -0.00268461 -0.00268776 -0.00244122 -0.00272238 -0.00272133 -0.00268461 -0.00268776 -0.00268776 -0.00268776 -0.00237408 -0.0024129 -0.00237618 -0.00237723 -0.00233841 -0.00233212 -0.00272343 -0.00269825 -0.00266048 -0.0025839 -0.00258495 -0.00258285 -0.00358892 -0.00326161 -0.0027528 -0.00191983 0.000553917 0.00126415 0.00206565 -0.00037872 -8.91723E-005 0.000200375 0.000672464 0.001261 0.00219049 0.00341792 0.00993169 0.0118358 0.013487 0.00818392 0.00990337 0.0116354 0.0135982 0.0151477 0.0166039 0.0185206 0.0294657 0.0326276 0.0354329 0.0376842 0.0402408 0.0427555 0.0461524 0.0486398 0.0512751 0.0546574 0.0579599 0.0620209 0.0653423 0.0684004 0.0728349 0.0753432 0.0792983 0.0832103 0.0862978 0.0898133 0.093847 0.097972 0.102988 0.107423 0.111242 0.115603 0.119029 0.123213 0.125511 0.130601 0.134645 0.138143 0.142238 0.146447 0.151535 0.154187 0.160139 0.165679 0.170556 0.1736 0.179317 0.184682 0.189175 0.194611 0.200833 0.206108 0.209151 0.216071 0.221561 0.226986 0.23103 0.235569 0.241704 0.244062 0.250098 0.255304 0.260442 0.265916 0.271213 0.276359 0.278323 0.283434 0.291005 0.294933 0.299277 0.3036 0.307148 0.309262 0.3126 0.322991 0.3286 0.334116 0.338061 0.341353 0.348573 0.3531 0.359498 0.365241 0.370743 0.376048 0.38096 0.38536 0.389058 0.395118 0.399937 0.403989 0.409795 0.413016 0.416245 0.421999 0.429351 0.435865 0.43953 0.442962 0.450325 0.454625 0.459483 0.464224 0.468709 0.471535 0.467035 0.498437 0.503043 0.517295 0.521717 0.513441 0.509601 0.510798 0.514582 0.517097 0.520362 0.523413 0.530882 0.538346 0.538034 0.540583 0.547509 0.551624 0.554963 0.561145 0.562374 0.565882 0.569655 0.572837 0.578157 0.580006 0.585896 0.59281 0.595743 0.598847 0.602915 0.60612 0.611178 0.610915 0.614663 0.621662 0.625596 0.625814 0.628358 0.633347 0.636659 0.641553 0.647394 0.653941 0.654194 0.658797 0.658902 0.662579 0.668625 0.670108 0.675632 0.680133 0.682015 0.684703 0.68547 0.687579 0.694397 0.700466 0.701874 0.702786 0.706018 0.709668 0.714749 0.719036 0.72247 0.723106 0.729573 0.730288 0.736534 0.739418 0.742202 0.742055 0.744982 0.745953 0.747607 0.753885 0.75905 0.761888 0.760951 0.765599 0.770327 0.7737 0.774631 0.77772 0.783065 0.787084 0.788544 0.790852 0.788937 0.792733 0.795723 0.798862 0.800961 0.806612 0.809951 0.813761 0.817022 0.820045 0.821561 0.822302 0.821311 0.822722 0.824252 0.828447 0.832503 0.833818 0.836908 0.837685 0.843293 0.846514 0.850463 0.85366 0.854692 0.85537 0.857022 0.86171 0.864123 0.864801 0.865788 0.86497 0.864799 0.865397 0.867795 0.873109 0.873302 0.870429 0.872358 0.873617 0.881028 0.883796 0.886094 0.887753 0.89216 0.894423 0.896187 0.897729 0.896994 0.901623 0.903021 0.903081 0.906231 0.90639 0.906647 0.910899 0.909062 0.905648 0.90204 0.905355 0.905978 0.906301 0.903268 0.905083 0.906107 0.909967 0.915989 0.916755 0.916675 0.9208 0.924033 0.928681 0.930018 0.929713 0.929148 0.936469 0.942432 0.945129 0.948326 0.949773 0.949502 0.946441 0.947243 0.952663 0.955506 0.956317 0.957359 0.957488 0.959069 0.957835 0.956757 0.95688 0.958767 0.961138 0.96375 0.965386 0.965978 0.971836 0.97573 0.976541 0.97504 0.974723 0.975149 0.977073 0.974779 0.975324 0.974292 0.97444 0.978205 0.98082 0.984369 0.982663 0.98021 0.979993 0.980807 0.986232 0.987289 0.989135 0.989104 0.989618 0.990631 0.991386 0.990914 0.99071 0.990356 0.99262 0.987778 0.982887 0.984271 0.99267 0.998263 0.997304 0.99859 0.998657 0.998838 1 0.994006 0.988141 0.988827 0.984839 0.98192 0.982245 0.982347 0.976477 0.980322 0.981776 0.980707 0.980136 0.979516 0.981475 0.979625 0.978305 0.976772 0.976862 0.973625 0.975729 0.977563 0.981355 0.97962 0.978758 0.974053 0.976059 0.983427 0.986134 0.985235 0.98498 0.984819 0.983018 0.979849 0.980518 0.975918 0.970017 0.96961 0.972746 0.966578 0.967877 0.970196 0.973756 0.973227 0.97111 0.967801 0.969593 0.973821 0.975354 0.974077 0.970061 0.97367 0.971802 0.977707 0.981657 0.982739 0.979797 0.981052 0.982263 0.983449 0.982974 0.982892 0.985246 0.985692 0.986765 0.983563 0.979512 0.976797 0.973276 0.969396 0.970494 0.964531 0.963338 0.965402 0.966197 0.966837 0.963052 0.965597 0.961626 0.963231 0.965157 0.962004 0.957124 0.956374 0.9548 0.953307 0.952383 0.95559 0.954485 0.953911 0.951957 0.951178 0.946949 0.944315 0.946918 0.948093 0.95034 0.949238 0.951737 0.954591 0.951674 0.949765 0.949988 0.948645 0.944623 0.941445 0.938852 0.936549 0.934325 0.933401 0.931949 0.930154 0.927867 0.925616 0.922974 0.920075 0.91489 0.913496 0.911021 0.907287 0.902649 0.902359 0.902963 0.906043 0.905113 0.904877 0.907601 0.906501 0.906802 0.907539 0.90452 0.904238 0.901672 0.897158 0.890988 0.888737 0.885968 0.885242 0.884659 0.8827 0.883672 0.878458 0.878587 0.87605 0.874556 0.873237 0.871288 0.869752 0.867628 0.865219 0.864819 0.862814 0.861995 0.861314 0.859509 0.856231 0.854199 0.850484 0.848011 0.846964 0.843307 0.834678 0.832941 0.829615 0.824032 0.820848 0.820637 0.821066 0.819538 0.814597 0.811913 0.812095 0.810903 0.808506 0.809734 0.810302 0.806824 0.804883 0.801934 0.797198 0.794443 0.789233 0.784614 0.780609 0.778839 0.776309 0.774782 0.772192 0.768215 0.766087 0.763439 0.761543 0.760789 0.757267 0.755587 0.756211 0.752962 0.750387 0.745429 0.742504 0.741882 0.738184 0.738717 0.739114 0.737543 0.732736 0.729696 0.725841 0.723776 0.72052 0.716798 0.713895 0.708941 0.703922 0.695615 0.697282 0.69587 0.694321 0.692578 0.690507 0.687104 0.682956 0.679714 0.674779 0.667887 0.664617 0.662383 0.655882 0.651607 0.648181 0.644027 0.64639 0.64457 0.641266 0.636643 0.63656 0.633013 0.628803 0.624989 0.622447 0.615455 0.615873 0.611816 0.60774 0.602013 0.596739 0.592861 0.589844 0.587494 0.58296 0.579761 0.575553 0.573588 0.57169 0.56394 0.541098 0.556925 0.552476 0.548012 0.54638 0.5434 0.53664 0.534304 0.530528 0.526919 0.52338 0.520292 0.51356 0.512603 0.506954 0.500649 0.495438 0.494622 0.489856 0.487468 0.483126 0.477801 0.473003 0.46811 0.46431 0.460545 0.455342 0.450925 0.446082 0.440557 0.436282 0.433287 0.428251 0.423517 0.419806 0.414924 0.411212 0.406465 0.402644 0.398863 0.396647 0.393129 0.388255 0.383223 0.377896 0.373264 0.369812 0.366349 0.361951 0.357685 0.352985 0.349462 0.344125 0.339475 0.335525 0.33095 0.326742 0.322929 0.318617 0.313945 0.310051 0.30542 0.300378 0.29456 0.289744 0.286845 0.281939 0.277839 0.273257 0.269428 0.264527 0.260375 0.255091 0.251265 0.246207 0.242126 0.237928 0.23301 0.230346 0.22177 0.223542 0.220441 0.215227 0.209828 0.205254 0.200539 0.196278 0.192175 0.187502 0.183388 0.179118 0.173652 0.169171 0.164549 0.160735 0.155515 0.152538 0.14952 0.146944 0.142783 0.13925 0.135623 0.132998 0.129838 0.125412 0.121573 0.118167 0.115816 0.113077 0.110247 0.106218 0.103486 0.100336 0.0969093 0.0938837 0.0910407 0.0867583 0.0846245 0.0829502 0.0801984 0.0776533 0.0749205 0.0728978 0.0703821 0.068135 0.0656549 0.063285 0.0601472 0.0581267 0.0563359 0.0536702 0.0515447 0.0509992 0.0488444 0.0464336 0.0450477 0.0428006 0.0414871 0.0407045 0.0394739 0.0381248 0.0371345 0.0367767 0.035415 0.0341614 0.0327189 0.0317485 0.0315513 0.031354 0.0307109 0.0293293 0.0287554 0.0283316 0.0275364 0.0267716 0.0252116 0.0248539 0.0248707 0.0247763 0.0245014 0.0235677 0.0233243 0.0226644 0.0222626 0.0223487 0.0209471 0.021223 0.0210814 0.0200176 0.0195812 0.0197679 0.019214 0.0188699 0.018551 0.0183999 0.0173267 0.0159513 0.0161024 0.0163038 0.0158926 0.0143295 0.0140798 0.0138647 0.0130181 0.0126352 0.0123435 0.0116984 0.00387218 0.00374628 0.003441 0.00331721 0.00277273 0.0022419 0.00280106 0.00844514 0.00763525 0.00694075 0.000885428 0.000954668 0.000364033 0.000150019 -0.000136381 -0.000761636 -0.000820385 0.00185269 0.00114455 0.000403898 -0.00195759 -0.0022419 -0.0024706 -0.0025241 -0.0025283 -0.0025241 -0.00220833 -0.00169847 -0.00169847 -0.00201424 -0.0025262 -0.00252935 -0.0025262 -0.00252725 -0.00252725 -0.00254403 -0.00226917 -0.00226603 -0.00222196 -0.00221882 -0.00221987 -0.00222301 -0.00229855 -0.00229435 -0.00229225 -0.00261013 -0.00261013 -0.00261117 -0.00260698 -0.00262062 -0.00261957 -0.00240765 -0.00262062 -0.00262376 -0.00262376 -0.00262376 -0.00264474 -0.00267412 -0.00250941 -0.00267517 -0.00267517 -0.00268251 -0.00268356 -0.00268881 -0.00267307 -0.00255767 -0.00271189 -0.00267832 -0.00265943 -0.00266153 -0.00265733 -0.00265838 -0.00265838 -0.00265628 -0.00265943 -0.00265628 -0.00265524 -0.00265104 -0.00265733 -0.00265733 -0.00265628 -0.00266363 -0.00265838 -0.00265943 -0.00266153 -0.00266468 -0.00270664 -0.00270349 -0.00266573 -0.00266573 -0.00266887 -0.00267412 -0.00267097 -0.00267202 -0.00267517 -0.00267622 -0.00267412 -0.00267412 -0.00267412 -0.00267412 -0.00272238 -0.00272657 -0.00269615 -0.00269195 -0.00268671 -0.00268566 -0.0026909 -0.0026993 -0.00270244 -0.00270664 -0.00270349 -0.00270349 -0.00268986 -0.00268986 -0.00271713 -0.00269825 -0.00273602 -0.00273916 -0.0027014 -0.00270454 -0.00270454 -0.00270349 -0.00270349 -0.00270769 -0.00270769 -0.00270769 -0.00270664 -0.00269825 -0.00269825 -0.00269825 -0.0026972 -0.0026972 -0.00271503 -0.00274965 -0.00274231 -0.00272867 -0.002693 -0.00269615 -0.0026993 -0.00270035 -0.00270244 -0.00270769 -0.00270559 -0.0026993 -0.00269195 -0.00268881 -0.0026909 -0.00268671 -0.00268356 -0.00271189 -0.00272343 -0.00272343 -0.00268776 -0.00268881 -0.00268356 -0.00268461 -0.00268461 -0.00268671 -0.00268881 -0.0026909 -0.002693 -0.00269405 -0.00269615 -0.00269615 -0.0026951 -0.00269195 -0.00269615 -0.00269615 -0.00269615 -0.00270244 -0.00268986 -0.00273077 -0.00273287 -0.002693 -0.00269195 -0.0026951 -0.002693 -0.00269195 -0.00270035 -0.00270244 -0.00270244 -0.00271608 -0.00270454 -0.00270349 -0.00269825 -0.00269405 -0.00269405 -0.002693 -0.00269195 -0.00269195 -0.00269405 -0.0026909 -0.002693 -0.00269405 -0.00269405 -0.0026972 -0.0026972 -0.0026993 -0.0027014 -0.00273392 -0.00273706 -0.00272972 -0.00270244 -0.00269825 -0.00270035 -0.0026972 -0.00270035 -0.0027014 -0.0027014 -0.00270349 -0.0026993 -0.00270244 -0.00270244 -0.00270244 -0.00270244 -0.00270349 -0.00270664 -0.00270874 -0.00271084 -0.00270979 -0.0027486 -0.00274651 -0.00271189 -0.00270874 -0.00270874 -0.00271084 -0.0026972 -0.0026951 -0.00269825 -0.00269825 -0.0027014 -0.00270035 -0.00270035 -0.00269825 -0.0026972 -0.0026972 -0.00269405 -0.0026993 -0.00270035 -0.00270035 -0.00272657 -0.00272867 -0.00268986 -0.00268881 -0.00268881 -0.00269195 -0.00269195 -0.00269195 -0.002693 -0.00268461 -0.00268671 -0.00268356 -0.00268776 -0.00268356 -0.00268146 -0.002693 -0.0026993 -0.00273392 -0.00273182 -0.00270874 -0.00270769 -0.00271294 -0.00270874 -0.00270979 -0.00270769 -0.00270979 -0.00270979 -0.00270874 -0.00270874 -0.00271084 -0.00271294 -0.00271398 -0.00270349 -0.00273811 -0.00274021 -0.0027014 -0.0026993 -0.00270244 -0.0027014 -0.0026993 -0.00270244 -0.00270559 -0.00270874 -0.00270769 -0.00270559 -0.00270979 -0.00270349 -0.00270454 -0.00274231 -0.0027486 -0.00271084 -0.00270874 -0.00270769 -0.00270979 -0.00271084 -0.00271084 -0.00270664 -0.0026951 -0.00269825 -0.0026993 -0.0026972 -0.00270035 -0.0027014 -0.0027014 -0.00270035 -0.00274021 -0.00274651 -0.00270979 -0.00270664 -0.00270664 -0.00270664 -0.00270454 -0.00272028 -0.00271818 -0.00271713 -0.00272028 -0.00271818 -0.00273497 -0.0027486 -0.00275595 -0.00275385 -0.00271608 -0.00271923 -0.00272343 -0.00272133 -0.00272133 -0.00272448 -0.00272657 -0.00272657 -0.00272552 -0.00275595 -0.00276119 -0.00276329 -0.00272552 -0.00272972 -0.00273182 -0.00272972 -0.00273182 -0.00272133 -0.00272028 -0.00274231 -0.00275595 -0.00275595 -0.00271923 -0.00271713 -0.00273287 -0.00272343 -0.00272133 -0.00272028 -0.00272133 -0.00272238 -0.00276224 -0.00276539 -0.00273706 -0.00272552 -0.00272552] action=Normalize
