Clear
Set DefaultBaseFrequency=60

New circuit.NEV
~ Basekv=138 pu=1.05

redirect LineGeometry.DSS
redirect LineCodes.DSS
redirect Spectra.DSS
redirect Substation.DSS
redirect Lines.DSS
redirect Grounds.DSS
redirect Loads.DSS
redirect Capacitors.DSS

Set voltagebases=[138 13.2 .48 .208]
calcvoltagebases

