New "LoadShape.LoadShape5" npts=8760 interval=1.0 mult=(File=LoadShape5_P.CSV)  Qmult=(File=LoadShape5_Q.CSV) Action=Normalize

