New "Transformer.subxfmr" phases=3 windings=2 XHL=10.63 buses=[sourcebus, subxfmr_lsb, ] conns=[delta, wye, ] kVs=[230, 34.5, ] kVAs=[45000, 45000, ] taps=[1, 1.0125, ] wdg=1 %R=0.12 RdcOhms=1.199067 wdg=2 %R=0.12 RdcOhms=0.008993 MinTap=0.9 MaxTap=1.1 sub=yes %noloadloss=0.18 %Rs=[0.12, 0.12, ] emerghkVA=75000
New "Transformer.step_05410_g2100ci3100" phases=1 buses=[n1386727.3, n1386727_lo.3, ] conns=[wye, wye, ] kVs=[19.92, 7.62, ] kVAs=[1000, 1000, ] taps=[1, 1, ] wdg=1 %R=0.4075 RdcOhms=1.374438 wdg=2 %R=0.4075 RdcOhms=0.2011206 XHL=3.72 %Rs=[0.4075, 0.4075, ] %noloadloss=0.0424 sub=no
New "Transformer.step_05410_g2100ci5100" phases=1 buses=[n1386726.3, n1386726_lo.3, ] conns=[wye, wye, ] kVs=[19.92, 7.62, ] kVAs=[1000, 1000, ] taps=[1, 1, ] wdg=1 %R=0.4075 RdcOhms=1.374438 wdg=2 %R=0.4075 RdcOhms=0.2011206 XHL=3.72 %Rs=[0.4075, 0.4075, ] %noloadloss=0.0424 sub=no
New "Transformer.05410_g2000ff4400" phases=1 buses=[n283602.1, g2000ff4400_n283602_sec.1, ] conns=[wye, wye, ] kVs=[19.91858, 0.24, ] kVAs=[10, 10, ] taps=[1, 1, ] wdg=1 %R=0.7 RdcOhms=236.0663 wdg=2 %R=0.7 RdcOhms=0.034272 %imag=0.5 %loadloss=1.4 %noloadloss=0.325 XHL=1.575
New "Transformer.05410_g2000sk5500" phases=1 buses=[n274137.2, g2000sk5500_n274137_sec.2, ] conns=[wye, wye, ] kVs=[19.91858, 0.24, ] kVAs=[50, 50, ] taps=[1, 1, ] wdg=1 %R=0.4385 RdcOhms=29.57573 wdg=2 %R=0.4385 RdcOhms=0.004293792 %imag=0.5 %loadloss=0.877 %noloadloss=0.181 XHL=2.025
New "Transformer.05410_g2000sk7800" phases=1 buses=[n274150.2, g2000sk7800_n274150_sec.2, ] conns=[wye, wye, ] kVs=[19.91858, 0.24, ] kVAs=[50, 50, ] taps=[1, 1, ] wdg=1 %R=0.4385 RdcOhms=29.57573 wdg=2 %R=0.4385 RdcOhms=0.004293792 %imag=0.5 %loadloss=0.877 %noloadloss=0.181 XHL=2.025
New "Transformer.05410_g2000tj2700" phases=1 buses=[n274103.3, g2000tj2700_n274103_sec.3, ] conns=[wye, wye, ] kVs=[19.91858, 0.24, ] kVAs=[50, 50, ] taps=[1, 1, ] wdg=1 %R=0.4385 RdcOhms=29.57573 wdg=2 %R=0.4385 RdcOhms=0.004293792 %imag=0.5 %loadloss=0.877 %noloadloss=0.181 XHL=2.025
New "Transformer.05410_g2000tl1200" phases=1 buses=[n283789.2, g2000tl1200_n283789_sec.2, ] conns=[wye, wye, ] kVs=[19.91858, 0.24, ] kVAs=[100, 100, ] taps=[1, 1, ] wdg=1 %R=0.67875 RdcOhms=22.89 wdg=2 %R=0.67875 RdcOhms=0.00332316 %imag=0.5 %loadloss=1.3575 %noloadloss=0.131 XHL=3.29
New "Transformer.05410_g2000tl5600" phases=1 buses=[n283806.2, g2000tl5600_n283806_sec.2, ] conns=[wye, wye, ] kVs=[19.91858, 0.24, ] kVAs=[50, 50, ] taps=[1, 1, ] wdg=1 %R=0.4385 RdcOhms=29.57573 wdg=2 %R=0.4385 RdcOhms=0.004293792 %imag=0.5 %loadloss=0.877 %noloadloss=0.181 XHL=2.025
New "Transformer.05410_g2000uh9400" phases=1 buses=[n283633.3, g2000uh9400_n283633_sec.3, ] conns=[wye, wye, ] kVs=[19.91858, 0.24, ] kVAs=[25, 25, ] taps=[1, 1, ] wdg=1 %R=0.633 RdcOhms=85.38854 wdg=2 %R=0.633 RdcOhms=0.01239667 %imag=0.5 %loadloss=1.266 %noloadloss=0.248 XHL=1.835
New "Transformer.05410_g2000uh9800" phases=1 buses=[n283647.3, g2000uh9800_n283647_sec.3, ] conns=[wye, wye, ] kVs=[19.91858, 0.24, ] kVAs=[50, 50, ] taps=[1, 1, ] wdg=1 %R=0.4385 RdcOhms=29.57573 wdg=2 %R=0.4385 RdcOhms=0.004293792 %imag=0.5 %loadloss=0.877 %noloadloss=0.181 XHL=2.025
New "Transformer.05410_g2000ui3100" phases=1 buses=[n283702.3, g2000ui3100_n283702_sec.3, ] conns=[wye, wye, ] kVs=[19.91858, 0.24, ] kVAs=[50, 50, ] taps=[1, 1, ] wdg=1 %R=0.4385 RdcOhms=29.57573 wdg=2 %R=0.4385 RdcOhms=0.004293792 %imag=0.5 %loadloss=0.877 %noloadloss=0.181 XHL=2.025
New "Transformer.05410_g2000ui5400" phases=1 buses=[n283699.3, g2000ui5400_n283699_sec.3, ] conns=[wye, wye, ] kVs=[19.91858, 0.24, ] kVAs=[100, 100, ] taps=[1, 1, ] wdg=1 %R=0.67875 RdcOhms=22.89 wdg=2 %R=0.67875 RdcOhms=0.00332316 %imag=0.5 %loadloss=1.3575 %noloadloss=0.131 XHL=3.29
New "Transformer.05410_g2000ui6400" phases=1 buses=[n283679.3, g2000ui6400_n283679_sec.3, ] conns=[wye, wye, ] kVs=[19.91858, 0.24, ] kVAs=[50, 50, ] taps=[1, 1, ] wdg=1 %R=0.4385 RdcOhms=29.57573 wdg=2 %R=0.4385 RdcOhms=0.004293792 %imag=0.5 %loadloss=0.877 %noloadloss=0.181 XHL=2.025
New "Transformer.05410_g2000uj0800" phases=1 buses=[n283722.3, g2000uj0800_n283722_sec.3, ] conns=[wye, wye, ] kVs=[19.91858, 0.24, ] kVAs=[50, 50, ] taps=[1, 1, ] wdg=1 %R=0.4385 RdcOhms=29.57573 wdg=2 %R=0.4385 RdcOhms=0.004293792 %imag=0.5 %loadloss=0.877 %noloadloss=0.181 XHL=2.025
New "Transformer.05410_g2000uj3600" phases=1 buses=[n283731.2, g2000uj3600_n283731_sec.2, ] conns=[wye, wye, ] kVs=[19.91858, 0.24, ] kVAs=[100, 100, ] taps=[1, 1, ] wdg=1 %R=0.67875 RdcOhms=22.89 wdg=2 %R=0.67875 RdcOhms=0.00332316 %imag=0.5 %loadloss=1.3575 %noloadloss=0.131 XHL=3.29
New "Transformer.05410_g2000uj6500" phases=1 buses=[n283747.2, g2000uj6500_n283747_sec.2, ] conns=[wye, wye, ] kVs=[19.91858, 0.24, ] kVAs=[100, 100, ] taps=[1, 1, ] wdg=1 %R=0.67875 RdcOhms=22.89 wdg=2 %R=0.67875 RdcOhms=0.00332316 %imag=0.5 %loadloss=1.3575 %noloadloss=0.131 XHL=3.29
New "Transformer.05410_g2000uk1100" phases=1 buses=[n283753.3, g2000uk1100_n283753_sec.3, ] conns=[wye, wye, ] kVs=[19.91858, 0.24, ] kVAs=[50, 50, ] taps=[1, 1, ] wdg=1 %R=0.4385 RdcOhms=29.57573 wdg=2 %R=0.4385 RdcOhms=0.004293792 %imag=0.5 %loadloss=0.877 %noloadloss=0.181 XHL=2.025
New "Transformer.05410_g2000ul1900" phases=1 buses=[n283810.2, g2000ul1900_n283810_sec.2, ] conns=[wye, wye, ] kVs=[19.91858, 0.24, ] kVAs=[50, 50, ] taps=[1, 1, ] wdg=1 %R=0.4385 RdcOhms=29.57573 wdg=2 %R=0.4385 RdcOhms=0.004293792 %imag=0.5 %loadloss=0.877 %noloadloss=0.181 XHL=2.025
New "Transformer.05410_g2000ul3200" phases=1 buses=[n283772.2, g2000ul3200_n283772_sec.2, ] conns=[wye, wye, ] kVs=[19.91858, 0.24, ] kVAs=[100, 100, ] taps=[1, 1, ] wdg=1 %R=0.67875 RdcOhms=22.89 wdg=2 %R=0.67875 RdcOhms=0.00332316 %imag=0.5 %loadloss=1.3575 %noloadloss=0.131 XHL=3.29
New "Transformer.05410_g2000ul7700" phases=1 buses=[n283791.2, g2000ul7700_n283791_sec.2, ] conns=[wye, wye, ] kVs=[19.91858, 0.24, ] kVAs=[50, 50, ] taps=[1, 1, ] wdg=1 %R=0.567 RdcOhms=38.24273 wdg=2 %R=0.567 RdcOhms=0.005552064 %imag=0.5 %loadloss=1.134 %noloadloss=0.181 XHL=1.965
New "Transformer.05410_g2000um7300" phases=1 buses=[n283821.2, g2000um7300_n283821_sec.2, ] conns=[wye, wye, ] kVs=[19.91858, 0.24, ] kVAs=[25, 25, ] taps=[1, 1, ] wdg=1 %R=0.658 RdcOhms=88.76091 wdg=2 %R=0.658 RdcOhms=0.01288627 %imag=0.5 %loadloss=1.316 %noloadloss=0.198 XHL=1.745
New "Transformer.05410_g2000vh4000" phases=1 buses=[n283609.2, g2000vh4000_n283609_sec.2, ] conns=[wye, wye, ] kVs=[19.91858, 0.24, ] kVAs=[15, 15, ] taps=[1, 1, ] wdg=1 %R=0.7466667 RdcOhms=167.8693 wdg=2 %R=0.7466667 RdcOhms=0.0243712 %imag=0.5 %loadloss=1.493333 %noloadloss=0.2733333 XHL=2.18
New "Transformer.05410_g2000vh9100" phases=1 buses=[n283615.3, g2000vh9100_n283615_sec.3, ] conns=[wye, wye, ] kVs=[19.91858, 0.24, ] kVAs=[15, 15, ] taps=[1, 1, ] wdg=1 %R=0.7466667 RdcOhms=167.8693 wdg=2 %R=0.7466667 RdcOhms=0.0243712 %imag=0.5 %loadloss=1.493333 %noloadloss=0.2733333 XHL=2.18
New "Transformer.05410_g2000vh9500" phases=1 buses=[n283675.2, g2000vh9500_n283675_sec.2, ] conns=[wye, wye, ] kVs=[19.91858, 0.24, ] kVAs=[167, 167, ] taps=[1, 1, ] wdg=1 %R=0.4167665 RdcOhms=8.416125 wdg=2 %R=0.4167665 RdcOhms=0.001221849 %imag=0.5 %loadloss=0.8335329 %noloadloss=0.161976 XHL=2.355
New "Transformer.05410_g2000vi6200" phases=1 buses=[n283684.2, g2000vi6200_n283684_sec.2, ] conns=[wye, wye, ] kVs=[19.91858, 0.24, ] kVAs=[167, 167, ] taps=[1, 1, ] wdg=1 %R=0.4167665 RdcOhms=8.416125 wdg=2 %R=0.4167665 RdcOhms=0.001221849 %imag=0.5 %loadloss=0.8335329 %noloadloss=0.161976 XHL=2.355
New "Transformer.05410_g2000vj0200" phases=1 buses=[n283716.2, g2000vj0200_n283716_sec.2, ] conns=[wye, wye, ] kVs=[19.91858, 0.24, ] kVAs=[100, 100, ] taps=[1, 1, ] wdg=1 %R=0.67875 RdcOhms=22.89 wdg=2 %R=0.67875 RdcOhms=0.00332316 %imag=0.5 %loadloss=1.3575 %noloadloss=0.131 XHL=3.29
New "Transformer.05410_g2000vl8700" phases=1 buses=[n283799.3, g2000vl8700_n283799_sec.3, ] conns=[wye, wye, ] kVs=[19.91858, 0.24, ] kVAs=[25, 25, ] taps=[1, 1, ] wdg=1 %R=0.658 RdcOhms=88.76091 wdg=2 %R=0.658 RdcOhms=0.01288627 %imag=0.5 %loadloss=1.316 %noloadloss=0.198 XHL=1.745
New "Transformer.05410_g2000vm1500" phases=1 buses=[n283827.2, g2000vm1500_n283827_sec.2, ] conns=[wye, wye, ] kVs=[19.91858, 0.24, ] kVAs=[25, 25, ] taps=[1, 1, ] wdg=1 %R=0.658 RdcOhms=88.76091 wdg=2 %R=0.658 RdcOhms=0.01288627 %imag=0.5 %loadloss=1.316 %noloadloss=0.198 XHL=1.745
New "Transformer.05410_g2000vm6800" phases=1 buses=[n283833.2, g2000vm6800_n283833_sec.2, ] conns=[wye, wye, ] kVs=[19.91858, 0.24, ] kVAs=[25, 25, ] taps=[1, 1, ] wdg=1 %R=0.658 RdcOhms=88.76091 wdg=2 %R=0.658 RdcOhms=0.01288627 %imag=0.5 %loadloss=1.316 %noloadloss=0.198 XHL=1.745
New "Transformer.05410_g2000wh5900" phases=1 buses=[n283675.2, g2000wh5900_n283675_sec.2, ] conns=[wye, wye, ] kVs=[19.91858, 0.24, ] kVAs=[50, 50, ] taps=[1, 1, ] wdg=1 %R=0.4385 RdcOhms=29.57573 wdg=2 %R=0.4385 RdcOhms=0.004293792 %imag=0.5 %loadloss=0.877 %noloadloss=0.181 XHL=2.025
New "Transformer.05410_g2000wi4400" phases=1 buses=[n283710.2, g2000wi4400_n283710_sec.2, ] conns=[wye, wye, ] kVs=[19.91858, 0.24, ] kVAs=[100, 100, ] taps=[1, 1, ] wdg=1 %R=0.67875 RdcOhms=22.89 wdg=2 %R=0.67875 RdcOhms=0.00332316 %imag=0.5 %loadloss=1.3575 %noloadloss=0.131 XHL=3.29
New "Transformer.05410_g2000wk0800" phases=1 buses=[n283765.2, g2000wk0800_n283765_sec.2, ] conns=[wye, wye, ] kVs=[19.91858, 0.24, ] kVAs=[25, 25, ] taps=[1, 1, ] wdg=1 %R=0.658 RdcOhms=88.76091 wdg=2 %R=0.658 RdcOhms=0.01288627 %imag=0.5 %loadloss=1.316 %noloadloss=0.198 XHL=1.745
New "Transformer.05410_g2000wk8200" phases=1 buses=[n283746.2, g2000wk8200_n283746_sec.2, ] conns=[wye, wye, ] kVs=[19.91858, 0.24, ] kVAs=[15, 15, ] taps=[1, 1, ] wdg=1 %R=0.7466667 RdcOhms=167.8693 wdg=2 %R=0.7466667 RdcOhms=0.0243712 %imag=0.5 %loadloss=1.493333 %noloadloss=0.2733333 XHL=2.18
New "Transformer.05410_g2000wl3500" phases=1 buses=[n283799.3, g2000wl3500_n283799_sec.3, ] conns=[wye, wye, ] kVs=[19.91858, 0.24, ] kVAs=[25, 25, ] taps=[1, 1, ] wdg=1 %R=0.658 RdcOhms=88.76091 wdg=2 %R=0.658 RdcOhms=0.01288627 %imag=0.5 %loadloss=1.316 %noloadloss=0.198 XHL=1.745
New "Transformer.05410_g2000wl4100" phases=1 buses=[n283765.2, g2000wl4100_n283765_sec.2, ] conns=[wye, wye, ] kVs=[19.91858, 0.24, ] kVAs=[25, 25, ] taps=[1, 1, ] wdg=1 %R=0.658 RdcOhms=88.76091 wdg=2 %R=0.658 RdcOhms=0.01288627 %imag=0.5 %loadloss=1.316 %noloadloss=0.198 XHL=1.745
New "Transformer.05410_g2000wl9300" phases=1 buses=[n283779.2, g2000wl9300_n283779_sec.2, ] conns=[wye, wye, ] kVs=[19.91858, 0.24, ] kVAs=[15, 15, ] taps=[1, 1, ] wdg=1 %R=0.7466667 RdcOhms=167.8693 wdg=2 %R=0.7466667 RdcOhms=0.0243712 %imag=0.5 %loadloss=1.493333 %noloadloss=0.2733333 XHL=2.18
New "Transformer.05410_g2000wm0100" phases=1 buses=[n283809.3, g2000wm0100_n283809_sec.3, ] conns=[wye, wye, ] kVs=[19.91858, 0.24, ] kVAs=[25, 25, ] taps=[1, 1, ] wdg=1 %R=0.658 RdcOhms=88.76091 wdg=2 %R=0.658 RdcOhms=0.01288627 %imag=0.5 %loadloss=1.316 %noloadloss=0.198 XHL=1.745
New "Transformer.05410_g2000wm3200" phases=1 buses=[n283819.3, g2000wm3200_n283819_sec.3, ] conns=[wye, wye, ] kVs=[19.91858, 0.24, ] kVAs=[25, 25, ] taps=[1, 1, ] wdg=1 %R=0.658 RdcOhms=88.76091 wdg=2 %R=0.658 RdcOhms=0.01288627 %imag=0.5 %loadloss=1.316 %noloadloss=0.198 XHL=1.745
New "Transformer.05410_g2000wm6400" phases=1 buses=[n283824.3, g2000wm6400_n283824_sec.3, ] conns=[wye, wye, ] kVs=[19.91858, 0.24, ] kVAs=[37.5, 37.5, ] taps=[1, 1, ] wdg=1 %R=0.606 RdcOhms=54.49758 wdg=2 %R=0.606 RdcOhms=0.007911936 %imag=0.5 %loadloss=1.212 %noloadloss=0.2115 XHL=1.9025
New "Transformer.05410_g2000wn0100" phases=1 buses=[n283840.2, g2000wn0100_n283840_sec.2, ] conns=[wye, wye, ] kVs=[19.91858, 0.24, ] kVAs=[25, 25, ] taps=[1, 1, ] wdg=1 %R=0.658 RdcOhms=88.76091 wdg=2 %R=0.658 RdcOhms=0.01288627 %imag=0.5 %loadloss=1.316 %noloadloss=0.198 XHL=1.745
New "Transformer.05410_g2000wn3300" phases=1 buses=[n283848.2, g2000wn3300_n283848_sec.2, ] conns=[wye, wye, ] kVs=[19.91858, 0.24, ] kVAs=[25, 25, ] taps=[1, 1, ] wdg=1 %R=0.658 RdcOhms=88.76091 wdg=2 %R=0.658 RdcOhms=0.01288627 %imag=0.5 %loadloss=1.316 %noloadloss=0.198 XHL=1.745
New "Transformer.05410_g2000xe9500" phases=1 buses=[n283544.3, g2000xe9500_n283544_sec.3, ] conns=[wye, wye, ] kVs=[7.621024, 0.24, ] kVAs=[100, 100, ] taps=[1, 1, ] wdg=1 %R=0.67875 RdcOhms=3.350853 wdg=2 %R=0.67875 RdcOhms=0.00332316 %imag=0.5 %loadloss=1.3575 %noloadloss=0.131 XHL=3.29
New "Transformer.05410_g2000xf7700" phases=1 buses=[n283582.3, g2000xf7700_n283582_sec.3, ] conns=[wye, wye, ] kVs=[7.621024, 0.24, ] kVAs=[50, 50, ] taps=[1, 1, ] wdg=1 %R=0.4385 RdcOhms=4.329574 wdg=2 %R=0.4385 RdcOhms=0.004293792 %imag=0.5 %loadloss=0.877 %noloadloss=0.181 XHL=2.025
New "Transformer.05410_g2000xg5800" phases=1 buses=[n283612.3, g2000xg5800_n283612_sec.3, ] conns=[wye, wye, ] kVs=[7.621024, 0.24, ] kVAs=[50, 50, ] taps=[1, 1, ] wdg=1 %R=0.4385 RdcOhms=4.329574 wdg=2 %R=0.4385 RdcOhms=0.004293792 %imag=0.5 %loadloss=0.877 %noloadloss=0.181 XHL=2.025
New "Transformer.05410_g2000xh0500" phases=1 buses=[n283607.3, g2000xh0500_n283607_sec.3, ] conns=[wye, wye, ] kVs=[19.91858, 0.24, ] kVAs=[15, 15, ] taps=[1, 1, ] wdg=1 %R=0.7466667 RdcOhms=167.8693 wdg=2 %R=0.7466667 RdcOhms=0.0243712 %imag=0.5 %loadloss=1.493333 %noloadloss=0.2733333 XHL=2.18
New "Transformer.05410_g2000xh4000" phases=1 buses=[n283639.3, g2000xh4000_n283639_sec.3, ] conns=[wye, wye, ] kVs=[19.91858, 0.24, ] kVAs=[15, 15, ] taps=[1, 1, ] wdg=1 %R=0.7466667 RdcOhms=167.8693 wdg=2 %R=0.7466667 RdcOhms=0.0243712 %imag=0.5 %loadloss=1.493333 %noloadloss=0.2733333 XHL=2.18
New "Transformer.05410_g2000xh4800" phases=1 buses=[n283608.2, g2000xh4800_n283608_sec.2, ] conns=[wye, wye, ] kVs=[19.91858, 0.24, ] kVAs=[25, 25, ] taps=[1, 1, ] wdg=1 %R=0.633 RdcOhms=85.38854 wdg=2 %R=0.633 RdcOhms=0.01239667 %imag=0.5 %loadloss=1.266 %noloadloss=0.248 XHL=1.835
New "Transformer.05410_g2000xh7500" phases=1 buses=[n283636.3, g2000xh7500_n283636_sec.3, ] conns=[wye, wye, ] kVs=[7.621024, 0.24, ] kVAs=[50, 50, ] taps=[1, 1, ] wdg=1 %R=0.4385 RdcOhms=4.329574 wdg=2 %R=0.4385 RdcOhms=0.004293792 %imag=0.5 %loadloss=0.877 %noloadloss=0.181 XHL=2.025
New "Transformer.05410_g2000xj7800" phases=1 buses=[n283732.2, g2000xj7800_n283732_sec.2, ] conns=[wye, wye, ] kVs=[19.91858, 0.24, ] kVAs=[50, 50, ] taps=[1, 1, ] wdg=1 %R=0.567 RdcOhms=38.24273 wdg=2 %R=0.567 RdcOhms=0.005552064 %imag=0.5 %loadloss=1.134 %noloadloss=0.181 XHL=1.965
New "Transformer.05410_g2000xj9800" phases=1 buses=[n283726.2, g2000xj9800_n283726_sec.2, ] conns=[wye, wye, ] kVs=[19.91858, 0.24, ] kVAs=[50, 50, ] taps=[1, 1, ] wdg=1 %R=0.567 RdcOhms=38.24273 wdg=2 %R=0.567 RdcOhms=0.005552064 %imag=0.5 %loadloss=1.134 %noloadloss=0.181 XHL=1.965
New "Transformer.05410_g2000xk5800" phases=1 buses=[n283764.3, g2000xk5800_n283764_sec.3, ] conns=[wye, wye, ] kVs=[19.91858, 0.24, ] kVAs=[15, 15, ] taps=[1, 1, ] wdg=1 %R=0.7466667 RdcOhms=167.8693 wdg=2 %R=0.7466667 RdcOhms=0.0243712 %imag=0.5 %loadloss=1.493333 %noloadloss=0.2733333 XHL=2.18
New "Transformer.05410_g2000xl0100" phases=1 buses=[n283777.1, g2000xl0100_n283777_sec.1, ] conns=[wye, wye, ] kVs=[19.91858, 0.24, ] kVAs=[25, 25, ] taps=[1, 1, ] wdg=1 %R=0.658 RdcOhms=88.76091 wdg=2 %R=0.658 RdcOhms=0.01288627 %imag=0.5 %loadloss=1.316 %noloadloss=0.198 XHL=1.745
New "Transformer.05410_g2000xl0800" phases=1 buses=[n283812.1, g2000xl0800_n283812_sec.1, ] conns=[wye, wye, ] kVs=[19.91858, 0.24, ] kVAs=[25, 25, ] taps=[1, 1, ] wdg=1 %R=0.658 RdcOhms=88.76091 wdg=2 %R=0.658 RdcOhms=0.01288627 %imag=0.5 %loadloss=1.316 %noloadloss=0.198 XHL=1.745
New "Transformer.05410_g2000xl1500" phases=1 buses=[n283787.1, g2000xl1500_n283787_sec.1, ] conns=[wye, wye, ] kVs=[19.91858, 0.24, ] kVAs=[50, 50, ] taps=[1, 1, ] wdg=1 %R=0.567 RdcOhms=38.24273 wdg=2 %R=0.567 RdcOhms=0.005552064 %imag=0.5 %loadloss=1.134 %noloadloss=0.181 XHL=1.965
New "Transformer.05410_g2000xl6500" phases=1 buses=[n283764.1, g2000xl6500_n283764_sec.1, ] conns=[wye, wye, ] kVs=[19.91858, 0.24, ] kVAs=[25, 25, ] taps=[1, 1, ] wdg=1 %R=0.658 RdcOhms=88.76091 wdg=2 %R=0.658 RdcOhms=0.01288627 %imag=0.5 %loadloss=1.316 %noloadloss=0.198 XHL=1.745
New "Transformer.05410_g2000xl8000" phases=1 buses=[n283769.1, g2000xl8000_n283769_sec.1, ] conns=[wye, wye, ] kVs=[19.91858, 0.24, ] kVAs=[25, 25, ] taps=[1, 1, ] wdg=1 %R=0.658 RdcOhms=88.76091 wdg=2 %R=0.658 RdcOhms=0.01288627 %imag=0.5 %loadloss=1.316 %noloadloss=0.198 XHL=1.745
New "Transformer.05410_g2000xl9500" phases=1 buses=[n283792.1, g2000xl9500_n283792_sec.1, ] conns=[wye, wye, ] kVs=[19.91858, 0.24, ] kVAs=[25, 25, ] taps=[1, 1, ] wdg=1 %R=0.658 RdcOhms=88.76091 wdg=2 %R=0.658 RdcOhms=0.01288627 %imag=0.5 %loadloss=1.316 %noloadloss=0.198 XHL=1.745
New "Transformer.05410_g2000xm1800" phases=1 buses=[n283834.3, g2000xm1800_n283834_sec.3, ] conns=[wye, wye, ] kVs=[19.91858, 0.24, ] kVAs=[25, 25, ] taps=[1, 1, ] wdg=1 %R=0.658 RdcOhms=88.76091 wdg=2 %R=0.658 RdcOhms=0.01288627 %imag=0.5 %loadloss=1.316 %noloadloss=0.198 XHL=1.745
New "Transformer.05410_g2000xn2900" phases=1 buses=[n283859.3, g2000xn2900_n283859_sec.3, ] conns=[wye, wye, ] kVs=[19.91858, 0.24, ] kVAs=[25, 25, ] taps=[1, 1, ] wdg=1 %R=0.658 RdcOhms=88.76091 wdg=2 %R=0.658 RdcOhms=0.01288627 %imag=0.5 %loadloss=1.316 %noloadloss=0.198 XHL=1.745
New "Transformer.05410_g2000xn9200" phases=1 buses=[n283851.3, g2000xn9200_n283851_sec.3, ] conns=[wye, wye, ] kVs=[19.91858, 0.24, ] kVAs=[25, 25, ] taps=[1, 1, ] wdg=1 %R=0.658 RdcOhms=88.76091 wdg=2 %R=0.658 RdcOhms=0.01288627 %imag=0.5 %loadloss=1.316 %noloadloss=0.198 XHL=1.745
New "Transformer.05410_g2000xn9500" phases=1 buses=[n283851.3, g2000xn9500_n283851_sec.3, ] conns=[wye, wye, ] kVs=[19.91858, 0.24, ] kVAs=[25, 25, ] taps=[1, 1, ] wdg=1 %R=0.658 RdcOhms=88.76091 wdg=2 %R=0.658 RdcOhms=0.01288627 %imag=0.5 %loadloss=1.316 %noloadloss=0.198 XHL=1.745
New "Transformer.05410_g2000ye2100" phases=1 buses=[n283532.3, g2000ye2100_n283532_sec.3, ] conns=[wye, wye, ] kVs=[7.621024, 0.24, ] kVAs=[25, 25, ] taps=[1, 1, ] wdg=1 %R=0.633 RdcOhms=12.49998 wdg=2 %R=0.633 RdcOhms=0.01239667 %imag=0.5 %loadloss=1.266 %noloadloss=0.248 XHL=1.835
New "Transformer.05410_g2000yi1900" phases=1 buses=[n283701.1, g2000yi1900_n283701_sec.1, ] conns=[wye, wye, ] kVs=[19.91858, 0.24, ] kVAs=[25, 25, ] taps=[1, 1, ] wdg=1 %R=0.658 RdcOhms=88.76091 wdg=2 %R=0.658 RdcOhms=0.01288627 %imag=0.5 %loadloss=1.316 %noloadloss=0.198 XHL=1.745
New "Transformer.05410_g2000yi2500" phases=1 buses=[n283673.3, g2000yi2500_n283673_sec.3, ] conns=[wye, wye, ] kVs=[19.91858, 0.24, ] kVAs=[25, 25, ] taps=[1, 1, ] wdg=1 %R=0.658 RdcOhms=88.76091 wdg=2 %R=0.658 RdcOhms=0.01288627 %imag=0.5 %loadloss=1.316 %noloadloss=0.198 XHL=1.745
New "Transformer.05410_g2000ym2700" phases=1 buses=[n283830.1, g2000ym2700_n283830_sec.1, ] conns=[wye, wye, ] kVs=[19.91858, 0.24, ] kVAs=[25, 25, ] taps=[1, 1, ] wdg=1 %R=0.658 RdcOhms=88.76091 wdg=2 %R=0.658 RdcOhms=0.01288627 %imag=0.5 %loadloss=1.316 %noloadloss=0.198 XHL=1.745
New "Transformer.05410_g2000ym7400" phases=1 buses=[n283825.1, g2000ym7400_n283825_sec.1, ] conns=[wye, wye, ] kVs=[19.91858, 0.24, ] kVAs=[25, 25, ] taps=[1, 1, ] wdg=1 %R=0.658 RdcOhms=88.76091 wdg=2 %R=0.658 RdcOhms=0.01288627 %imag=0.5 %loadloss=1.316 %noloadloss=0.198 XHL=1.745
New "Transformer.05410_g2100ad9900" phases=1 buses=[n283564.3, g2100ad9900_n283564_sec.3, ] conns=[wye, wye, ] kVs=[7.621024, 0.24, ] kVAs=[100, 100, ] taps=[1, 1, ] wdg=1 %R=0.67875 RdcOhms=3.350853 wdg=2 %R=0.67875 RdcOhms=0.00332316 %imag=0.5 %loadloss=1.3575 %noloadloss=0.131 XHL=3.29
New "Transformer.05410_g2100ae4800" phases=1 buses=[n283558.3, g2100ae4800_n283558_sec.3, ] conns=[wye, wye, ] kVs=[7.621024, 0.24, ] kVAs=[100, 100, ] taps=[1, 1, ] wdg=1 %R=0.67875 RdcOhms=3.350853 wdg=2 %R=0.67875 RdcOhms=0.00332316 %imag=0.5 %loadloss=1.3575 %noloadloss=0.131 XHL=3.29
New "Transformer.05410_g2100ae9900" phases=1 buses=[n283556.3, g2100ae9900_n283556_sec.3, ] conns=[wye, wye, ] kVs=[7.621024, 0.24, ] kVAs=[100, 100, ] taps=[1, 1, ] wdg=1 %R=0.67875 RdcOhms=3.350853 wdg=2 %R=0.67875 RdcOhms=0.00332316 %imag=0.5 %loadloss=1.3575 %noloadloss=0.131 XHL=3.29
New "Transformer.05410_g2100af1300" phases=1 buses=[n292244.3, g2100af1300_n292244_sec.3, ] conns=[wye, wye, ] kVs=[19.91858, 0.24, ] kVAs=[15, 15, ] taps=[1, 1, ] wdg=1 %R=0.7466667 RdcOhms=167.8693 wdg=2 %R=0.7466667 RdcOhms=0.0243712 %imag=0.5 %loadloss=1.493333 %noloadloss=0.2733333 XHL=2.18
New "Transformer.05410_g2100af5900" phases=1 buses=[n283577.3, g2100af5900_n283577_sec.3, ] conns=[wye, wye, ] kVs=[7.621024, 0.24, ] kVAs=[100, 100, ] taps=[1, 1, ] wdg=1 %R=0.67875 RdcOhms=3.350853 wdg=2 %R=0.67875 RdcOhms=0.00332316 %imag=0.5 %loadloss=1.3575 %noloadloss=0.131 XHL=3.29
New "Transformer.05410_g2100ag2100" phases=1 buses=[n283585.3, g2100ag2100_n283585_sec.3, ] conns=[wye, wye, ] kVs=[7.621024, 0.24, ] kVAs=[100, 100, ] taps=[1, 1, ] wdg=1 %R=0.67875 RdcOhms=3.350853 wdg=2 %R=0.67875 RdcOhms=0.00332316 %imag=0.5 %loadloss=1.3575 %noloadloss=0.131 XHL=3.29
New "Transformer.05410_g2100ag8700" phases=1 buses=[n283594.3, g2100ag8700_n283594_sec.3, ] conns=[wye, wye, ] kVs=[7.621024, 0.24, ] kVAs=[100, 100, ] taps=[1, 1, ] wdg=1 %R=0.67875 RdcOhms=3.350853 wdg=2 %R=0.67875 RdcOhms=0.00332316 %imag=0.5 %loadloss=1.3575 %noloadloss=0.131 XHL=3.29
New "Transformer.05410_g2100ah2000" phases=1 buses=[n283617.3, g2100ah2000_n283617_sec.3, ] conns=[wye, wye, ] kVs=[7.621024, 0.24, ] kVAs=[100, 100, ] taps=[1, 1, ] wdg=1 %R=0.67875 RdcOhms=3.350853 wdg=2 %R=0.67875 RdcOhms=0.00332316 %imag=0.5 %loadloss=1.3575 %noloadloss=0.131 XHL=3.29
New "Transformer.05410_g2100ah6800" phases=1 buses=[n283651.3, g2100ah6800_n283651_sec.3, ] conns=[wye, wye, ] kVs=[7.621024, 0.24, ] kVAs=[100, 100, ] taps=[1, 1, ] wdg=1 %R=0.67875 RdcOhms=3.350853 wdg=2 %R=0.67875 RdcOhms=0.00332316 %imag=0.5 %loadloss=1.3575 %noloadloss=0.131 XHL=3.29
New "Transformer.05410_g2100ah8200" phases=1 buses=[n283618.3, g2100ah8200_n283618_sec.3, ] conns=[wye, wye, ] kVs=[7.621024, 0.24, ] kVAs=[100, 100, ] taps=[1, 1, ] wdg=1 %R=0.67875 RdcOhms=3.350853 wdg=2 %R=0.67875 RdcOhms=0.00332316 %imag=0.5 %loadloss=1.3575 %noloadloss=0.131 XHL=3.29
New "Transformer.05410_g2100ai4900" phases=1 buses=[n283724.2, g2100ai4900_n283724_sec.2, ] conns=[wye, wye, ] kVs=[19.91858, 0.24, ] kVAs=[50, 50, ] taps=[1, 1, ] wdg=1 %R=0.4385 RdcOhms=29.57573 wdg=2 %R=0.4385 RdcOhms=0.004293792 %imag=0.5 %loadloss=0.877 %noloadloss=0.181 XHL=2.025
New "Transformer.05410_g2100ak1200" phases=1 buses=[n283742.2, g2100ak1200_n283742_sec.2, ] conns=[wye, wye, ] kVs=[19.91858, 0.24, ] kVAs=[50, 50, ] taps=[1, 1, ] wdg=1 %R=0.4385 RdcOhms=29.57573 wdg=2 %R=0.4385 RdcOhms=0.004293792 %imag=0.5 %loadloss=0.877 %noloadloss=0.181 XHL=2.025
New "Transformer.05410_g2100ak4600" phases=1 buses=[n283751.2, g2100ak4600_n283751_sec.2, ] conns=[wye, wye, ] kVs=[19.91858, 0.24, ] kVAs=[50, 50, ] taps=[1, 1, ] wdg=1 %R=0.4385 RdcOhms=29.57573 wdg=2 %R=0.4385 RdcOhms=0.004293792 %imag=0.5 %loadloss=0.877 %noloadloss=0.181 XHL=2.025
New "Transformer.05410_g2100al1800" phases=1 buses=[n283798.1, g2100al1800_n283798_sec.1, ] conns=[wye, wye, ] kVs=[19.91858, 0.24, ] kVAs=[25, 25, ] taps=[1, 1, ] wdg=1 %R=0.658 RdcOhms=88.76091 wdg=2 %R=0.658 RdcOhms=0.01288627 %imag=0.5 %loadloss=1.316 %noloadloss=0.198 XHL=1.745
New "Transformer.05410_g2100al3200" phases=1 buses=[n283770.1, g2100al3200_n283770_sec.1, ] conns=[wye, wye, ] kVs=[19.91858, 0.24, ] kVAs=[25, 25, ] taps=[1, 1, ] wdg=1 %R=0.658 RdcOhms=88.76091 wdg=2 %R=0.658 RdcOhms=0.01288627 %imag=0.5 %loadloss=1.316 %noloadloss=0.198 XHL=1.745
New "Transformer.05410_g2100al7200" phases=1 buses=[n283775.1, g2100al7200_n283775_sec.1, ] conns=[wye, wye, ] kVs=[19.91858, 0.24, ] kVAs=[25, 25, ] taps=[1, 1, ] wdg=1 %R=0.658 RdcOhms=88.76091 wdg=2 %R=0.658 RdcOhms=0.01288627 %imag=0.5 %loadloss=1.316 %noloadloss=0.198 XHL=1.745
New "Transformer.05410_g2100am2000" phases=1 buses=[n283802.1, g2100am2000_n283802_sec.1, ] conns=[wye, wye, ] kVs=[19.91858, 0.24, ] kVAs=[25, 25, ] taps=[1, 1, ] wdg=1 %R=0.658 RdcOhms=88.76091 wdg=2 %R=0.658 RdcOhms=0.01288627 %imag=0.5 %loadloss=1.316 %noloadloss=0.198 XHL=1.745
New "Transformer.05410_g2100am2200" phases=1 buses=[n283815.1, g2100am2200_n283815_sec.1, ] conns=[wye, wye, ] kVs=[19.91858, 0.24, ] kVAs=[25, 25, ] taps=[1, 1, ] wdg=1 %R=0.658 RdcOhms=88.76091 wdg=2 %R=0.658 RdcOhms=0.01288627 %imag=0.5 %loadloss=1.316 %noloadloss=0.198 XHL=1.745
New "Transformer.05410_g2100am6300" phases=1 buses=[n283820.1, g2100am6300_n283820_sec.1, ] conns=[wye, wye, ] kVs=[19.91858, 0.24, ] kVAs=[25, 25, ] taps=[1, 1, ] wdg=1 %R=0.658 RdcOhms=88.76091 wdg=2 %R=0.658 RdcOhms=0.01288627 %imag=0.5 %loadloss=1.316 %noloadloss=0.198 XHL=1.745
New "Transformer.05410_g2100am6700" phases=1 buses=[n283835.1, g2100am6700_n283835_sec.1, ] conns=[wye, wye, ] kVs=[19.91858, 0.24, ] kVAs=[25, 25, ] taps=[1, 1, ] wdg=1 %R=0.658 RdcOhms=88.76091 wdg=2 %R=0.658 RdcOhms=0.01288627 %imag=0.5 %loadloss=1.316 %noloadloss=0.198 XHL=1.745
New "Transformer.05410_g2100am8100" phases=1 buses=[n283813.1, g2100am8100_n283813_sec.1, ] conns=[wye, wye, ] kVs=[19.91858, 0.24, ] kVAs=[25, 25, ] taps=[1, 1, ] wdg=1 %R=0.658 RdcOhms=88.76091 wdg=2 %R=0.658 RdcOhms=0.01288627 %imag=0.5 %loadloss=1.316 %noloadloss=0.198 XHL=1.745
New "Transformer.05410_g2100am9800" phases=1 buses=[n283829.1, g2100am9800_n283829_sec.1, ] conns=[wye, wye, ] kVs=[19.91858, 0.24, ] kVAs=[25, 25, ] taps=[1, 1, ] wdg=1 %R=0.658 RdcOhms=88.76091 wdg=2 %R=0.658 RdcOhms=0.01288627 %imag=0.5 %loadloss=1.316 %noloadloss=0.198 XHL=1.745
New "Transformer.05410_g2100an4700" phases=1 buses=[n283855.3, g2100an4700_n283855_sec.3, ] conns=[wye, wye, ] kVs=[19.91858, 0.24, ] kVAs=[25, 25, ] taps=[1, 1, ] wdg=1 %R=0.658 RdcOhms=88.76091 wdg=2 %R=0.658 RdcOhms=0.01288627 %imag=0.5 %loadloss=1.316 %noloadloss=0.198 XHL=1.745
New "Transformer.05410_g2100an8900" phases=1 buses=[n283855.3, g2100an8900_n283855_sec.3, ] conns=[wye, wye, ] kVs=[19.91858, 0.24, ] kVAs=[25, 25, ] taps=[1, 1, ] wdg=1 %R=0.658 RdcOhms=88.76091 wdg=2 %R=0.658 RdcOhms=0.01288627 %imag=0.5 %loadloss=1.316 %noloadloss=0.198 XHL=1.745
New "Transformer.05410_g2100be8900" phases=1 buses=[n283564.3, g2100be8900_n283564_sec.3, ] conns=[wye, wye, ] kVs=[7.621024, 0.24, ] kVAs=[50, 50, ] taps=[1, 1, ] wdg=1 %R=0.4385 RdcOhms=4.329574 wdg=2 %R=0.4385 RdcOhms=0.004293792 %imag=0.5 %loadloss=0.877 %noloadloss=0.181 XHL=2.025
New "Transformer.05410_g2100bg5600" phases=1 buses=[n283598.3, g2100bg5600_n283598_sec.3, ] conns=[wye, wye, ] kVs=[7.621024, 0.24, ] kVAs=[100, 100, ] taps=[1, 1, ] wdg=1 %R=0.67875 RdcOhms=3.350853 wdg=2 %R=0.67875 RdcOhms=0.00332316 %imag=0.5 %loadloss=1.3575 %noloadloss=0.131 XHL=3.29
New "Transformer.05410_g2100bh3900" phases=1 buses=[n283665.3, g2100bh3900_n283665_sec.3, ] conns=[wye, wye, ] kVs=[7.621024, 0.24, ] kVAs=[100, 100, ] taps=[1, 1, ] wdg=1 %R=0.67875 RdcOhms=3.350853 wdg=2 %R=0.67875 RdcOhms=0.00332316 %imag=0.5 %loadloss=1.3575 %noloadloss=0.131 XHL=3.29
New "Transformer.05410_g2100bh6100" phases=1 buses=[n283623.3, g2100bh6100_n283623_sec.3, ] conns=[wye, wye, ] kVs=[7.621024, 0.24, ] kVAs=[100, 100, ] taps=[1, 1, ] wdg=1 %R=0.67875 RdcOhms=3.350853 wdg=2 %R=0.67875 RdcOhms=0.00332316 %imag=0.5 %loadloss=1.3575 %noloadloss=0.131 XHL=3.29
New "Transformer.05410_g2100bi0400" phases=1 buses=[n283682.1, g2100bi0400_n283682_sec.1, ] conns=[wye, wye, ] kVs=[19.91858, 0.24, ] kVAs=[15, 15, ] taps=[1, 1, ] wdg=1 %R=0.7466667 RdcOhms=167.8693 wdg=2 %R=0.7466667 RdcOhms=0.0243712 %imag=0.5 %loadloss=1.493333 %noloadloss=0.2733333 XHL=2.18
New "Transformer.05410_g2100bi5900" phases=1 buses=[n283697.1, g2100bi5900_n283697_sec.1, ] conns=[wye, wye, ] kVs=[19.91858, 0.24, ] kVAs=[10, 10, ] taps=[1, 1, ] wdg=1 %R=0.7 RdcOhms=236.0663 wdg=2 %R=0.7 RdcOhms=0.034272 %imag=0.5 %loadloss=1.4 %noloadloss=0.325 XHL=1.575
New "Transformer.05410_g2100bj0700" phases=1 buses=[n283696.2, g2100bj0700_n283696_sec.2, ] conns=[wye, wye, ] kVs=[19.91858, 0.24, ] kVAs=[100, 100, ] taps=[1, 1, ] wdg=1 %R=0.67875 RdcOhms=22.89 wdg=2 %R=0.67875 RdcOhms=0.00332316 %imag=0.5 %loadloss=1.3575 %noloadloss=0.131 XHL=3.29
New "Transformer.05410_g2100bj1200" phases=1 buses=[n283713.1, g2100bj1200_n283713_sec.1, ] conns=[wye, wye, ] kVs=[19.91858, 0.24, ] kVAs=[25, 25, ] taps=[1, 1, ] wdg=1 %R=0.658 RdcOhms=88.76091 wdg=2 %R=0.658 RdcOhms=0.01288627 %imag=0.5 %loadloss=1.316 %noloadloss=0.198 XHL=1.745
New "Transformer.05410_g2100bj1300" phases=1 buses=[n283735.2, g2100bj1300_n283735_sec.2, ] conns=[wye, wye, ] kVs=[19.91858, 0.24, ] kVAs=[50, 50, ] taps=[1, 1, ] wdg=1 %R=0.4385 RdcOhms=29.57573 wdg=2 %R=0.4385 RdcOhms=0.004293792 %imag=0.5 %loadloss=0.877 %noloadloss=0.181 XHL=2.025
New "Transformer.05410_g2100bj2200" phases=1 buses=[n283714.2, g2100bj2200_n283714_sec.2, ] conns=[wye, wye, ] kVs=[19.91858, 0.24, ] kVAs=[37.5, 37.5, ] taps=[1, 1, ] wdg=1 %R=0.53575 RdcOhms=48.18 wdg=2 %R=0.53575 RdcOhms=0.006994752 %imag=0.5 %loadloss=1.0715 %noloadloss=0.2145 XHL=1.93
New "Transformer.05410_g2100bj5900" phases=1 buses=[n283761.2, g2100bj5900_n283761_sec.2, ] conns=[wye, wye, ] kVs=[19.91858, 0.24, ] kVAs=[50, 50, ] taps=[1, 1, ] wdg=1 %R=0.4385 RdcOhms=29.57573 wdg=2 %R=0.4385 RdcOhms=0.004293792 %imag=0.5 %loadloss=0.877 %noloadloss=0.181 XHL=2.025
New "Transformer.05410_g2100bj7400" phases=1 buses=[n283728.2, g2100bj7400_n283728_sec.2, ] conns=[wye, wye, ] kVs=[19.91858, 0.24, ] kVAs=[100, 100, ] taps=[1, 1, ] wdg=1 %R=0.67875 RdcOhms=22.89 wdg=2 %R=0.67875 RdcOhms=0.00332316 %imag=0.5 %loadloss=1.3575 %noloadloss=0.131 XHL=3.29
New "Transformer.05410_g2100bk4500" phases=1 buses=[n283756.2, g2100bk4500_n283756_sec.2, ] conns=[wye, wye, ] kVs=[19.91858, 0.24, ] kVAs=[100, 100, ] taps=[1, 1, ] wdg=1 %R=0.67875 RdcOhms=22.89 wdg=2 %R=0.67875 RdcOhms=0.00332316 %imag=0.5 %loadloss=1.3575 %noloadloss=0.131 XHL=3.29