New "Line.sw1" phases=3 bus1=150r bus2=149 r1=1 r0=1 x1=1 x0=1 C1=1.1 C0=1 length=0.001 Switch=True
