Clear
New Circuit.Zone_2


Redirect Vsource.dss
Redirect WireData.DSS
Redirect LineGeometry.DSS
Redirect LineCode.DSS
Redirect LoadShape.DSS
Redirect GrowthShape.DSS
Redirect TCC_Curve.DSS
Redirect Spectrum.DSS
Redirect Branches.dss
Redirect Transformers.dss
Redirect Loads.dss
Redirect Capacitors.dss
